geometry optimzed in LAMMPS
_audit_creation_date              2020-12-01 
_audit_creation_method            'lammps2cif' 
_symmetry_space_group_name_H-M    'P1' 
_symmetry_Int_Tables_number       1 
_symmetry_cell_setting            triclinic 
loop_ 
_symmetry_equiv_pos_as_xyz 
  x,y,z 
_cell_length_a                    26.28675206 
_cell_length_b                    26.360207583415253 
_cell_length_c                    38.02238577362898 
_cell_angle_alpha                 90.23418227478979 
_cell_angle_beta                  89.18656052695098 
_cell_angle_gamma                 89.89522645693414 
loop_ 
_atom_site_label 
_atom_site_type_symbol 
_atom_site_fract_x 
_atom_site_fract_y 
_atom_site_fract_z 
_atom_site_charge 
Fe1        Fe  0.16060641  0.29326830  0.37207383     1.65800
Fe2        Fe  0.27966493  0.30860642  0.39957156     1.73200
Fe3        Fe  0.18685734  0.38896986  0.42814604     1.54400
O4          O  0.15408886  0.42115169  0.38436919    -0.82200
O5          O  0.29254239  0.32890883  0.45201794    -0.80500
O6          O  0.11706894  0.35613356  0.35895952    -0.84700
O7          O  0.11814421  0.27826917  0.41532233    -0.79500
O8          O  0.25090420  0.43142905  0.41350929    -0.81300
O9          O  0.26075051  0.23676644  0.41549936    -0.84100
C10         C  0.10298032  0.30624452  0.44047102     0.96700
C11         C  0.12847279  0.40287582  0.35943917     1.04100
O12         O  0.20900061  0.33010516  0.40067115    -1.13000
O13         O  0.27776353  0.28472241  0.34685738    -0.75500
O14         O  0.20180029  0.30661637  0.32775701    -0.79000
O15         O  0.11998624  0.35121405  0.44553303    -0.79700
C16         C  0.24618666  0.28985182  0.32201875     0.95600
O17         O  0.19717974  0.22409864  0.37870634    -0.77600
O18         O  0.30112929  0.37866402  0.38255423    -0.82800
C19         C  0.26645563  0.34699662  0.47764200     0.98200
C20         C  0.28805987  0.42289026  0.39230428     1.04100
O21         O  0.22170785  0.36423395  0.47351267    -0.78500
C22         C  0.23323525  0.20736571  0.39737132     1.02400
Fe23       Fe  0.37064414  0.22865251  0.12709956     1.65800
Fe24       Fe  0.25139998  0.21467792  0.10023030     1.73200
Fe25       Fe  0.34309183  0.13428217  0.07048863     1.54400
O26         O  0.41076836  0.17235249  0.05454423    -0.82200
O27         O  0.22811903  0.14380576  0.11436169    -0.80500
O28         O  0.40947161  0.24704966  0.08274998    -0.84700
O29         O  0.41688428  0.16616262  0.13539099    -0.79500
O30         O  0.30863676  0.16064053  0.02502929    -0.81300
O31         O  0.25462270  0.23215587  0.15385427    -0.84100
C32         C  0.40281742  0.12041687  0.13805475     0.96700
C33         C  0.42720308  0.21775197  0.05905388     1.04100
O34         O  0.32146549  0.19275353  0.09848239    -1.13000
O35         O  0.27055859  0.28825437  0.08756838    -0.75500
O36         O  0.33301416  0.29787301  0.12530647    -0.79000
O37         O  0.37442185  0.10142318  0.11486897    -0.79700
C38         C  0.29662735  0.31606495  0.10782900     0.95600
O39         O  0.33171666  0.21113568  0.17202315    -0.77600
O40         O  0.23960965  0.19903051  0.04694392    -0.82800
C41         C  0.24053825  0.09973763  0.10393302     0.98200
C42         C  0.26483935  0.18058747  0.02099096     1.04100
O43         O  0.27864065  0.09129610  0.08360231    -0.78500
C44         C  0.28642227  0.22529974  0.17841633     1.02400
Fe45       Fe  0.48208818  0.90901002  0.37659672     1.65800
Fe46       Fe  0.46703522  0.02935741  0.35252569     1.73200
Fe47       Fe  0.38801657  0.93970417  0.32117367     1.54400
O48         O  0.42472591  0.87232397  0.30419288    -0.82200
O49         O  0.39623236  0.05037547  0.36934338    -0.80500
O50         O  0.49947240  0.87142983  0.33145042    -0.84700
O51         O  0.41829295  0.86430901  0.38634426    -0.79500
O52         O  0.41635263  0.97500451  0.27660033    -0.81300
O53         O  0.48728175  0.02346233  0.40567172    -0.84100
C54         C  0.37205426  0.87829431  0.38790156     0.96700
C55         C  0.46983349  0.85495085  0.30805175     1.04100
O56         O  0.44585771  0.95947006  0.34953565    -1.13000
O57         O  0.53972314  0.01113027  0.33682936    -0.75500
O58         O  0.55146901  0.94672280  0.37306239    -0.79000
O59         O  0.35413509  0.90681211  0.36448832    -0.79700
C60         C  0.56854419  0.98410630  0.35552204     0.95600
O61         O  0.46618728  0.94564047  0.42257255    -0.77600
O62         O  0.44920946  0.04470727  0.29996978    -0.82800
C63         C  0.35271549  0.03966417  0.35755669     0.98200
C64         C  0.43332789  0.01994839  0.27340646     1.04100
O65         O  0.34554831  0.00410222  0.33532716    -0.78500
C66         C  0.47997085  0.99036078  0.42967030     1.02400
Fe67       Fe  0.53531094  0.12238529  0.62472910     1.65800
Fe68       Fe  0.54731923  0.00195519  0.65045945     1.73200
Fe69       Fe  0.63119246  0.09021228  0.67806479     1.54400
O70         O  0.66354813  0.12235377  0.63349883    -0.82200
O71         O  0.56559937  0.98733235  0.70316651    -0.80500
O72         O  0.59933637  0.16613906  0.61300379    -0.84700
O73         O  0.52068626  0.16085228  0.66995141    -0.79500
O74         O  0.67134341  0.02532685  0.66313940    -0.81300
O75         O  0.47586090  0.02365844  0.66671038    -0.84100
C76         C  0.55143953  0.17587946  0.69314836     0.96700
C77         C  0.64530639  0.15178772  0.61059695     1.04100
O78         O  0.57130385  0.07127565  0.65161713    -1.13000
O79         O  0.52658272  0.00704131  0.59725685    -0.75500
O80         O  0.54869682  0.08418005  0.57912659    -0.79000
O81         O  0.59640729  0.15779000  0.69596738    -0.79700
C82         C  0.53443447  0.03934545  0.57275998     0.95600
O83         O  0.46513913  0.08664993  0.62936122    -0.77600
O84         O  0.61683304  0.97710769  0.63342554    -0.82800
C85         C  0.58551485  0.01204395  0.72839239     0.98200
C86         C  0.66149908  0.98809408  0.64294126     1.04100
O87         O  0.60521283  0.05563312  0.72367981    -0.78500
C88         C  0.44747123  0.05011757  0.64739797     1.02400
Fe89       Fe  0.98643262  0.90588333  0.12326215     1.65800
Fe90       Fe  0.96918697  0.02521265  0.15071658     1.73200
Fe91       Fe  0.88791366  0.93328402  0.17777555     1.54400
O92         O  0.85805329  0.90074195  0.13262173    -0.82200
O93         O  0.95039910  0.03764838  0.20354037    -0.80500
O94         O  0.92456869  0.85982923  0.11182889    -0.84700
O95         O  0.00195642  0.86702742  0.16758388    -0.79500
O96         O  0.84474533  0.99619308  0.16300234    -0.81300
O97         O  0.04186047  0.00693976  0.16535645    -0.84100
C98         C  0.97217326  0.85138092  0.19167888     0.96700
C99         C  0.87862906  0.87347444  0.10884210     1.04100
O100        O  0.94803474  0.95496269  0.15136907    -1.13000
O101        O  0.99015806  0.02208264  0.09765312    -0.75500
O102        O  0.97171414  0.94450473  0.07863790    -0.79000
O103        O  0.92606637  0.86702745  0.19511314    -0.79700
C104        C  0.98431410  0.99002837  0.07288882     0.95600
O105        O  0.05528165  0.94411370  0.12768012    -0.77600
O106        O  0.89900755  0.04717903  0.13469954    -0.82800
C107        C  0.93096318  0.01241904  0.22890048     0.98200
C108        C  0.85425120  0.03326985  0.14253233     1.04100
O109        O  0.91108103  0.96899924  0.22384644    -0.78500
C110        C  0.07162247  0.98092113  0.14595799     1.02400
Fe111      Fe  0.04150851  0.11879755  0.87957559     1.65800
Fe112      Fe  0.05229645  0.99919128  0.85061572     1.73200
Fe113      Fe  0.13581702  0.08839986  0.82188693     1.54400
O114        O  0.10071135  0.15620523  0.80521414    -0.82200
O115        O  0.12177834  0.97544999  0.86698028    -0.80500
O116        O  0.02903790  0.16297348  0.83727257    -0.84700
O117        O  0.10681005  0.15822938  0.89379370    -0.79500
O118        O  0.10891332  0.05369587  0.77672885    -0.81300
O119        O  0.02879521  0.00159913  0.90324118    -0.84100
C120        C  0.15370222  0.14695223  0.89098588     0.96700
C121        C  0.05740198  0.17667146  0.81187887     1.04100
O122        O  0.07638031  0.06895209  0.85004840    -1.13000
O123        O  0.98102905  0.02089334  0.83538551    -0.75500
O124        O  0.97037410  0.08574140  0.87231115    -0.79000
O125        O  0.17034217  0.12126826  0.86504515    -0.79700
C126        C  0.95243915  0.05004568  0.85356127     0.95600
O127        O  0.05239606  0.07684270  0.92311649    -0.77600
O128        O  0.07192798  0.98475780  0.79827965    -0.82800
C129        C  0.16654154  0.98750990  0.85751395     0.98200
C130        C  0.09027778  0.00958379  0.77252890     1.04100
O131        O  0.17610266  0.02351265  0.83610229    -0.78500
C132        C  0.03586178  0.03258483  0.92836509     1.02400
Fe133      Fe  0.86851804  0.23154061  0.37378943     1.65800
Fe134      Fe  0.74817832  0.21483345  0.39970668     1.73200
Fe135      Fe  0.83977469  0.13572207  0.42845817     1.54400
O136        O  0.87306543  0.10376830  0.38386425    -0.82200
O137        O  0.73353393  0.19676711  0.45286117    -0.80500
O138        O  0.91612646  0.16938615  0.36459482    -0.84700
O139        O  0.90442617  0.24967569  0.41880175    -0.79500
O140        O  0.77572882  0.09274663  0.41539961    -0.81300
O141        O  0.76584350  0.28747558  0.41469668    -0.84100
C142        C  0.92153935  0.21984891  0.44186407     0.96700
C143        C  0.90297197  0.12338849  0.36133449     1.04100
O144        O  0.81850850  0.19408047  0.40127902    -1.13000
O145        O  0.75413327  0.23465677  0.34613821    -0.75500
O146        O  0.83267736  0.21409851  0.32845090    -0.79000
O147        O  0.90667163  0.17366322  0.44468640    -0.79700
C148        C  0.78756878  0.22723986  0.32184107     0.95600
O149        O  0.82874953  0.30012372  0.37659330    -0.77600
O150        O  0.72694005  0.14430989  0.38377831    -0.82800
C151        C  0.75907887  0.17895475  0.47841776     0.98200
C152        C  0.73862229  0.10065692  0.39486569     1.04100
O153        O  0.80404641  0.16200073  0.47386081    -0.78500
C154        C  0.79153324  0.31672711  0.39502674     1.02400
Fe155      Fe  0.66276268  0.28783655  0.12770178     1.65800
Fe156      Fe  0.78415171  0.30153624  0.10164032     1.73200
Fe157      Fe  0.69471707  0.38598803  0.07526340     1.54400
O158        O  0.62794122  0.35063383  0.05641868    -0.82200
O159        O  0.80789021  0.37093214  0.11865414    -0.80500
O160        O  0.62404386  0.27521376  0.08309369    -0.84700
O161        O  0.61836187  0.35046051  0.14120387    -0.79500
O162        O  0.73190710  0.36341893  0.02919978    -0.81300
O163        O  0.77904168  0.27951036  0.15471555    -0.84100
C164        C  0.63106275  0.39664281  0.14323293     0.96700
C165        C  0.60940097  0.30590745  0.05977883     1.04100
O166        O  0.71409213  0.32501101  0.10085777    -1.13000
O167        O  0.76469381  0.22946313  0.08568630    -0.75500
O168        O  0.69842993  0.21831549  0.12120425    -0.79000
O169        O  0.66007316  0.41590371  0.12000772    -0.79700
C170        C  0.73614013  0.20076363  0.10397764     0.95600
O171        O  0.70060583  0.29904772  0.17306508    -0.77600
O172        O  0.79872707  0.32115927  0.04906561    -0.82800
C173        C  0.79549128  0.41613119  0.11150938     0.98200
C174        C  0.77535519  0.34292521  0.02411709     1.04100
O175        O  0.75826409  0.42689065  0.09171141    -0.78500
C176        C  0.74578236  0.28575125  0.17919951     1.02400
Fe177      Fe  0.86035871  0.73748868  0.62585403     1.65800
Fe178      Fe  0.74096544  0.71641960  0.60126716     1.73200
Fe179      Fe  0.83557821  0.64123940  0.57052922     1.54400
O180        O  0.90236732  0.67948279  0.55425467    -0.82200
O181        O  0.72328186  0.64554750  0.61859251    -0.80500
O182        O  0.89931119  0.75471541  0.58128942    -0.84700
O183        O  0.90713766  0.67573190  0.63719424    -0.79500
O184        O  0.80079859  0.66845104  0.52596030    -0.81300
O185        O  0.74431370  0.73985961  0.65417192    -0.84100
C186        C  0.89541909  0.62897060  0.63822793     0.96700
C187        C  0.91734675  0.72537165  0.55784258     1.04100
O188        O  0.81224265  0.69850073  0.59871627    -1.13000
O189        O  0.75615537  0.78849746  0.58473131    -0.75500
O190        O  0.81971556  0.80491186  0.62063716    -0.79000
O191        O  0.86852226  0.60947366  0.61433032    -0.79700
C192        C  0.78196359  0.81944180  0.60263358     0.95600
O193        O  0.82268667  0.72195639  0.67124762    -0.77600
O194        O  0.72761648  0.69610804  0.54875484    -0.82800
C195        C  0.73573556  0.60281167  0.60577530     0.98200
C196        C  0.75501080  0.68277627  0.52226728     1.04100
O197        O  0.77194144  0.59707040  0.58342595    -0.78500
C198        C  0.77745932  0.73494338  0.67815217     1.02400
Fe199      Fe  0.65586243  0.80055983  0.87338577     1.65800
Fe200      Fe  0.77646854  0.81790371  0.89715951     1.73200
Fe201      Fe  0.68468280  0.89601589  0.92908891     1.54400
O202        O  0.65057669  0.92809152  0.88564516    -0.82200
O203        O  0.79147200  0.83609181  0.94988659    -0.80500
O204        O  0.60974684  0.86302975  0.86322451    -0.84700
O205        O  0.61799820  0.78362803  0.91839939    -0.79500
O206        O  0.74805407  0.93949101  0.91448783    -0.81300
O207        O  0.75935963  0.74528020  0.91236395    -0.84100
C208        C  0.60244809  0.81239518  0.94303768     0.96700
C209        C  0.62321162  0.90917737  0.86177652     1.04100
O210        O  0.70579193  0.83802363  0.90049509    -1.13000
O211        O  0.77118077  0.79689506  0.84386677    -0.75500
O212        O  0.69268589  0.81616386  0.82759496    -0.79000
O213        O  0.61841290  0.85795512  0.94694545    -0.79700
C214        C  0.73768099  0.80282026  0.82019438     0.95600
O215        O  0.69461551  0.73176560  0.87698053    -0.77600
O216        O  0.79675795  0.88880500  0.88095552    -0.82800
C217        C  0.76643722  0.85258972  0.97664564     0.98200
C218        C  0.78470008  0.93234140  0.89268138     1.04100
O219        O  0.72145096  0.86981895  0.97357092    -0.78500
C220        C  0.73260185  0.71561226  0.89393113     1.02400
Fe221      Fe  0.54232826  0.62093088  0.37681325     1.65800
Fe222      Fe  0.55969905  0.50013768  0.35317046     1.73200
Fe223      Fe  0.64050734  0.59043513  0.32364771     1.54400
O224        O  0.60338730  0.65721964  0.30633287    -0.82200
O225        O  0.63006716  0.47785296  0.36901329    -0.80500
O226        O  0.52573068  0.65499902  0.33089084    -0.84700
O227        O  0.60398648  0.66863594  0.38480931    -0.79500
O228        O  0.61574904  0.55448121  0.27866230    -0.81300
O229        O  0.53944215  0.50731090  0.40665976    -0.84100
C230        C  0.64945637  0.65475704  0.38957758     0.96700
C231        C  0.55712847  0.67269771  0.30855090     1.04100
O232        O  0.58080804  0.57003787  0.35061634    -1.13000
O233        O  0.48685137  0.51795673  0.33842450    -0.75500
O234        O  0.47382567  0.58216327  0.37492334    -0.79000
O235        O  0.67042432  0.62395061  0.36817075    -0.79700
C236        C  0.45734707  0.54452404  0.35772642     0.95600
O237        O  0.55831442  0.58628002  0.42291817    -0.77600
O238        O  0.57879194  0.48506938  0.30015913    -0.82800
C239        C  0.67427949  0.48894421  0.35789145     0.98200
C240        C  0.59812271  0.51000233  0.27445311     1.04100
O241        O  0.68305008  0.52636960  0.33754906    -0.78500
C242        C  0.54608988  0.54109511  0.43037772     1.02400
Fe243      Fe  0.48264113  0.41137333  0.62269783     1.65800
Fe244      Fe  0.47238749  0.53032251  0.65278426     1.73200
Fe245      Fe  0.38674348  0.44172030  0.67879975     1.54400
O246        O  0.35425867  0.41136287  0.63408787    -0.82200
O247        O  0.45244949  0.54292425  0.70556613    -0.80500
O248        O  0.41830378  0.37001396  0.60934242    -0.84700
O249        O  0.49541055  0.36926100  0.66596359    -0.79500
O250        O  0.34749841  0.50751591  0.66563050    -0.81300
O251        O  0.54312448  0.50665463  0.66805756    -0.84100
C252        C  0.46577950  0.35528778  0.69064048     0.96700
C253        C  0.37223568  0.38432397  0.60926822     1.04100
O254        O  0.44719212  0.46124422  0.65195637    -1.13000
O255        O  0.49597456  0.52805927  0.59981503    -0.75500
O256        O  0.47140307  0.45330385  0.57888343    -0.79000
O257        O  0.42103765  0.37361851  0.69512202    -0.79700
C258        C  0.48921159  0.49738567  0.57429354     0.95600
O259        O  0.55321477  0.44519343  0.62871619    -0.77600
O260        O  0.40344387  0.55639936  0.63674717    -0.82800
C261        C  0.43168036  0.51751810  0.73030925     0.98200
C262        C  0.35829179  0.54521156  0.64606378     1.04100
O263        O  0.41229259  0.47414088  0.72488153    -0.78500
C264        C  0.57128416  0.48038580  0.64768602     1.02400
Fe265      Fe  0.15861870  0.79455782  0.62694551     1.65800
Fe266      Fe  0.27847592  0.81382101  0.60053810     1.73200
Fe267      Fe  0.18551490  0.88947624  0.57050599     1.54400
O268        O  0.11870570  0.85159311  0.55528622    -0.82200
O269        O  0.29672565  0.88480136  0.61706352    -0.80500
O270        O  0.11975108  0.77685929  0.58277277    -0.84700
O271        O  0.11264285  0.85728299  0.63829458    -0.79500
O272        O  0.22086262  0.86134213  0.52553672    -0.81300
O273        O  0.27438026  0.79241126  0.65349020    -0.84100
C274        C  0.12552772  0.90374480  0.63904529     0.96700
C275        C  0.10281477  0.80609162  0.55928292     1.04100
O276        O  0.20754794  0.83244190  0.59879544    -1.13000
O277        O  0.26245367  0.74151627  0.58485259    -0.75500
O278        O  0.19877962  0.72638838  0.62201993    -0.79000
O279        O  0.15246635  0.92237148  0.61447959    -0.79700
C280        C  0.23692447  0.71122635  0.60379728     0.95600
O281        O  0.19594438  0.81073752  0.67200195    -0.77600
O282        O  0.29287578  0.83266676  0.54802210    -0.82800
C283        C  0.28467142  0.92765406  0.60474722     0.98200
C284        C  0.26665692  0.84625672  0.52177838     1.04100
O285        O  0.24918312  0.93351063  0.58260721    -0.78500
C286        C  0.24144692  0.79862322  0.67808285     1.02400
Fe287      Fe  0.37110649  0.74123788  0.87224339     1.65800
Fe288      Fe  0.24978828  0.72649067  0.89718372     1.73200
Fe289      Fe  0.33888025  0.64635464  0.92781651     1.54400
O290        O  0.37421005  0.61339023  0.88468524    -0.82200
O291        O  0.23252786  0.70705637  0.94928587    -0.80500
O292        O  0.41536638  0.67752592  0.86044141    -0.84700
O293        O  0.40925600  0.75634814  0.91693067    -0.79500
O294        O  0.27534686  0.60468874  0.91248046    -0.81300
O295        O  0.26875579  0.79768661  0.91389993    -0.84100
C296        C  0.42258942  0.72763652  0.94179475     0.96700
C297        C  0.40280698  0.63108164  0.86063462     1.04100
O298        O  0.31992622  0.70468787  0.89955932    -1.13000
O299        O  0.25617491  0.74904276  0.84449952    -0.75500
O300        O  0.33414802  0.72791686  0.82655176    -0.79000
O301        O  0.40500356  0.68277095  0.94593223    -0.79700
C302        C  0.28932160  0.74208894  0.82013633     0.95600
O303        O  0.33389930  0.81075683  0.87758415    -0.77600
O304        O  0.22881475  0.65668181  0.87958227    -0.82800
C305        C  0.25620740  0.69002007  0.97572824     0.98200
C306        C  0.24004139  0.61276879  0.89051631     1.04100
O307        O  0.30133268  0.67292223  0.97253812    -0.78500
C308        C  0.29584183  0.82713626  0.89520926     1.02400
Fe309      Fe  0.98984641  0.42022729  0.87533966     1.65800
Fe310      Fe  0.97364799  0.54004970  0.84919298     1.73200
Fe311      Fe  0.89235528  0.44831852  0.82253259     1.54400
O312        O  0.92857015  0.38050724  0.80540241    -0.82200
O313        O  0.90345212  0.56218032  0.86687141    -0.80500
O314        O  0.00446580  0.38003601  0.83102772    -0.84700
O315        O  0.92720635  0.37573331  0.88880695    -0.79500
O316        O  0.91736160  0.48287431  0.77647386    -0.81300
O317        O  0.99633952  0.53684369  0.90200416    -0.84100
C318        C  0.88037376  0.38746291  0.89057942     0.96700
C319        C  0.97356955  0.36255612  0.80886899     1.04100
O320        O  0.95207689  0.46969146  0.84839231    -1.13000
O321        O  0.04593112  0.52153427  0.83239701    -0.75500
O322        O  0.05886303  0.45682361  0.86822283    -0.79000
O323        O  0.86109039  0.41574767  0.86743943    -0.79700
C324        C  0.07552221  0.49336047  0.84973640     0.95600
O325        O  0.97691343  0.45935490  0.92050491    -0.77600
O326        O  0.95370848  0.55307643  0.79675529    -0.82800
C327        C  0.85897593  0.54961250  0.85794886     0.98200
C328        C  0.93536573  0.52719053  0.77154139     1.04100
O329        O  0.85020895  0.51261887  0.83718841    -0.78500
C330        C  0.99101512  0.50433308  0.92656699     1.02400
Fe331      Fe  0.04496251  0.61845172  0.12474357     1.65800
Fe332      Fe  0.06418934  0.49835324  0.14787892     1.73200
Fe333      Fe  0.14277842  0.58973247  0.17741056     1.54400
O334        O  0.17362605  0.62349753  0.13276977    -0.82200
O335        O  0.08313306  0.48366782  0.20010010    -0.80500
O336        O  0.10684768  0.66553023  0.11443112    -0.84700
O337        O  0.02828454  0.65424662  0.17053418    -0.79500
O338        O  0.18630445  0.52601466  0.16265490    -0.81300
O339        O  0.99178586  0.51523268  0.16481004    -0.84100
C340        C  0.05837849  0.67123977  0.19342030     0.96700
C341        C  0.15323689  0.65283362  0.11072275     1.04100
O342        O  0.08403035  0.56858877  0.15049858    -1.13000
O343        O  0.04269293  0.50417750  0.09503139    -0.75500
O344        O  0.06022780  0.58302673  0.07832134    -0.79000
O345        O  0.10476246  0.65636316  0.19541231    -0.79700
C346        C  0.04727494  0.53797178  0.07123455     0.95600
O347        O  0.97644099  0.57916790  0.12918984    -0.77600
O348        O  0.13490948  0.47780576  0.13045681    -0.82800
C349        C  0.09937251  0.50878410  0.22634373     0.98200
C350        C  0.17870955  0.48948414  0.14123084     1.04100
O351        O  0.11710277  0.55348956  0.22273285    -0.78500
C352        C  0.96106800  0.54147068  0.14702201     1.02400
C353        C  0.98132277  0.48720592  0.99012428    -0.20800
C354        C  0.00375862  0.51687741  0.96345118    -0.07400
C355        C  0.04179047  0.55235205  0.97249120     0.13500
C356        C  0.05656054  0.55650343  0.00767959    -0.20900
C357        C  0.03432885  0.52650129  0.03427172    -0.07400
C358        C  0.99612336  0.49120834  0.02523588     0.13500
C359        C  0.96980361  0.45813646  0.05217664    -0.24200
H360        H  0.95209688  0.46001766  0.98337642     0.14800
H361        H  0.08563544  0.58381059  0.01453064     0.14800
C362        C  0.06778992  0.58539156  0.94547212    -0.24200
H363        H  0.93961137  0.43437488  0.04034090     0.05000
H364        H  0.95157301  0.48197933  0.07284207     0.08200
H365        H  0.99776317  0.43212263  0.06424935     0.08200
H366        H  0.03965171  0.61126883  0.93345116     0.08200
H367        H  0.08586433  0.56152598  0.92479121     0.08200
H368        H  0.09804527  0.60904284  0.95723078     0.05000
C369        C  0.15090355  0.50069871  0.88699690    -0.20800
C370        C  0.12929359  0.50862368  0.85377254    -0.07400
C371        C  0.15383297  0.54178525  0.82992739     0.13500
C372        C  0.19326505  0.57257310  0.84204067    -0.20900
C373        C  0.20918326  0.57039296  0.87715790    -0.07400
C374        C  0.18972031  0.53213804  0.89939954     0.13500
C375        C  0.20555649  0.52765600  0.93723490    -0.24200
H376        H  0.13312775  0.47434725  0.90518055     0.14800
H377        H  0.20992667  0.60039507  0.82438479     0.14800
C378        C  0.13856356  0.54657542  0.79203242    -0.24200
H379        H  0.18453055  0.49707328  0.95119718     0.05000
H380        H  0.19767746  0.56382529  0.95140544     0.08200
H381        H  0.24674649  0.51864529  0.93844144     0.08200
H382        H  0.12286314  0.58505067  0.78732490     0.08200
H383        H  0.11010394  0.51775489  0.78432162     0.08200
H384        H  0.17251598  0.54081318  0.77474130     0.05000
C385        C  0.25850232  0.67267021  0.04061005    -0.20800
C386        C  0.23005340  0.68793184  0.01131398    -0.07400
C387        C  0.17715192  0.69736071  0.01664403     0.13500
C388        C  0.15452855  0.68840313  0.04986999    -0.20900
C389        C  0.18238296  0.66991066  0.07849253    -0.07400
C390        C  0.23571812  0.66339985  0.07379552     0.13500
C391        C  0.26939036  0.64633634  0.10328791    -0.24200
H392        H  0.29903757  0.66635818  0.03737619     0.14800
H393        H  0.11385006  0.69390388  0.05295530     0.14800
C394        C  0.14324224  0.71563082  0.98759231    -0.24200
H395        H  0.31028591  0.64712291  0.09554487     0.05000
H396        H  0.26022763  0.60670499  0.11074202     0.08200
H397        H  0.26423958  0.67193315  0.12633446     0.08200
H398        H  0.14295223  0.68755566  0.96579581     0.08200
H399        H  0.15687266  0.75289001  0.97778575     0.08200
H400        H  0.10321916  0.72078309  0.99670194     0.05000
C401        C  0.28706936  0.74513279  0.72025778    -0.20800
C402        C  0.25514076  0.78693020  0.71461964    -0.07400
C403        C  0.23391255  0.81339843  0.74381569     0.13500
C404        C  0.24475537  0.79671988  0.77783863    -0.20900
C405        C  0.27661819  0.75480179  0.78350735    -0.07400
C406        C  0.29812807  0.72860133  0.75426498     0.13500
C407        C  0.33127658  0.68219866  0.75841046    -0.24200
H408        H  0.30244589  0.72436840  0.69782155     0.14800
H409        H  0.22909603  0.81732768  0.80024777     0.14800
C410        C  0.20114309  0.86005890  0.73952688    -0.24200
H411        H  0.34117707  0.66457181  0.73262178     0.05000
H412        H  0.31098152  0.65333534  0.77449497     0.08200
H413        H  0.36760823  0.69249050  0.77106937     0.08200
H414        H  0.16460632  0.84995949  0.72707978     0.08200
H415        H  0.22153847  0.88848383  0.72312340     0.08200
H416        H  0.19174091  0.87817456  0.76524953     0.05000
C417        C  0.32268247  0.59613415  0.59838201    -0.20800
C418        C  0.31747191  0.57814455  0.63289252    -0.07400
C419        C  0.27750530  0.59657393  0.65457316     0.13500
C420        C  0.24734172  0.63662217  0.64237144    -0.20900
C421        C  0.25702789  0.65929967  0.60943580    -0.07400
C422        C  0.29326005  0.63655501  0.58632991     0.13500
C423        C  0.30332865  0.65577522  0.54961498    -0.24200
H424        H  0.35231767  0.58046308  0.58140110     0.14800
H425        H  0.21914225  0.65314378  0.66007276     0.14800
C426        C  0.26890686  0.57702565  0.69138783    -0.24200
H427        H  0.32787015  0.62926226  0.53414624     0.05000
H428        H  0.32370456  0.69242515  0.55079394     0.08200
H429        H  0.26694167  0.66014896  0.53545647     0.08200
H430        H  0.30378515  0.58234206  0.70710715     0.08200
H431        H  0.25909579  0.53611156  0.69044056     0.08200
H432        H  0.23720051  0.59724120  0.70509449     0.05000
C433        C  0.46478185  0.57693277  0.77634190    -0.20800
C434        C  0.42831202  0.54069446  0.76636104    -0.07400
C435        C  0.38688160  0.53108139  0.78974414     0.13500
C436        C  0.38225560  0.55897733  0.82121275    -0.20900
C437        C  0.41697681  0.59729534  0.83023901    -0.07400
C438        C  0.45968759  0.60533348  0.80778111     0.13500
C439        C  0.50023865  0.64342441  0.81668461    -0.24200
H440        H  0.49694659  0.58408772  0.75892547     0.14800
H441        H  0.34923145  0.55263007  0.83801153     0.14800
C442        C  0.34531870  0.49380413  0.78109081    -0.24200
H443        H  0.53270833  0.64174619  0.79769330     0.05000
H444        H  0.51518140  0.63553469  0.84328513     0.08200
H445        H  0.48451993  0.68246074  0.81585594     0.08200
H446        H  0.36127911  0.45486615  0.77922264     0.08200
H447        H  0.32736911  0.50434635  0.75587622     0.08200
H448        H  0.31483118  0.49321857  0.80162281     0.05000
C449        C  0.52406455  0.47133629  0.51651042    -0.20800
C450        C  0.50591608  0.51087401  0.53827766    -0.07400
C451        C  0.50466672  0.56083633  0.52510298     0.13500
C452        C  0.51928526  0.56930441  0.49003242    -0.20900
C453        C  0.53541279  0.52931212  0.46778256    -0.07400
C454        C  0.53893206  0.47976265  0.48155822     0.13500
C455        C  0.55916923  0.43564153  0.46013812    -0.24200
H456        H  0.52668885  0.43323421  0.52696841     0.14800
H457        H  0.51670961  0.60745802  0.47968326     0.14800
C458        C  0.48648945  0.60509570  0.54720692    -0.24200
H459        H  0.56298481  0.40082832  0.47625990     0.05000
H460        H  0.59741110  0.44496397  0.44922029     0.08200
H461        H  0.53281823  0.42656134  0.43848299     0.08200
H462        H  0.51254691  0.61112896  0.56954100     0.08200
H463        H  0.44736516  0.59775351  0.55731562     0.08200
H464        H  0.48562681  0.64086710  0.53188031     0.05000
C465        C  0.50693226  0.71666742  0.96789835    -0.20800
C466        C  0.46393622  0.74728877  0.96386338    -0.07400
C467        C  0.46844847  0.80032868  0.96937866     0.13500
C468        C  0.51693676  0.82236838  0.96940402    -0.20900
C469        C  0.56019585  0.79195303  0.96472909    -0.07400
C470        C  0.55538451  0.73866833  0.96884075     0.13500
C471        C  0.60098861  0.70407146  0.97030820    -0.24200
H472        H  0.50365150  0.67580396  0.96549146     0.14800
H473        H  0.52027741  0.86331488  0.96815486     0.14800
C474        C  0.42266614  0.83472537  0.97153199    -0.24200
H475        H  0.59805545  0.67990557  0.99409700     0.05000
H476        H  0.63714950  0.72559976  0.97187649     0.08200
H477        H  0.60236367  0.67932791  0.94659729     0.08200
H478        H  0.38647588  0.81307964  0.97205683     0.08200
H479        H  0.42263077  0.86074100  0.94863066     0.08200
H480        H  0.42410278  0.85755665  0.99610128     0.05000
C481        C  0.78366398  0.64252725  0.91392688    -0.20800
C482        C  0.75076258  0.66263511  0.88875755    -0.07400
C483        C  0.74521817  0.63638966  0.85627006     0.13500
C484        C  0.77854074  0.59624217  0.84792640    -0.20900
C485        C  0.81656560  0.58154036  0.87122254    -0.07400
C486        C  0.81652757  0.60218013  0.90566389     0.13500
C487        C  0.85145731  0.58248815  0.93371878    -0.24200
H488        H  0.78634587  0.66084393  0.93941523     0.14800
H489        H  0.77737992  0.57889108  0.82204803     0.14800
C490        C  0.70664076  0.65172589  0.82929270    -0.24200
H491        H  0.84267334  0.59985409  0.95977785     0.05000
H492        H  0.89167247  0.59152999  0.92726510     0.08200
H493        H  0.84687974  0.54077937  0.93626291     0.08200
H494        H  0.71431891  0.69063172  0.81980019     0.08200
H495        H  0.66780248  0.64989642  0.84106825     0.08200
H496        H  0.70758632  0.62622474  0.80595729     0.05000
C497        C  0.00381220  0.71354560  0.53322167    -0.20800
C498        C  0.96139434  0.74522832  0.53761656    -0.07400
C499        C  0.96793510  0.79837359  0.53388164     0.13500
C500        C  0.01704276  0.81879099  0.53532798    -0.20900
C501        C  0.05919313  0.78684009  0.53908054    -0.07400
C502        C  0.05299517  0.73401021  0.53343307     0.13500
C503        C  0.09754658  0.69817555  0.53033558    -0.24200
H504        H  0.99917059  0.67270210  0.53401593     0.14800
H505        H  0.02156251  0.85953752  0.53767911     0.14800
C506        C  0.92355857  0.83444867  0.53163770    -0.24200
H507        H  0.09458422  0.67588864  0.50560523     0.05000
H508        H  0.09736140  0.67170879  0.55298316     0.08200
H509        H  0.13446062  0.71852236  0.52936238     0.08200
H510        H  0.92194655  0.85901811  0.55542733     0.08200
H511        H  0.88680126  0.81418187  0.52913025     0.08200
H512        H  0.92832630  0.85872813  0.50802859     0.05000
C513        C  0.94973899  0.61575111  0.69133923    -0.20800
C514        C  0.91125223  0.59750183  0.66922413    -0.07400
C515        C  0.88454625  0.55306968  0.67983596     0.13500
C516        C  0.89534845  0.53029466  0.71233579    -0.20900
C517        C  0.93159822  0.55027884  0.73544069    -0.07400
C518        C  0.96036336  0.59294079  0.72401697     0.13500
C519        C  0.00257588  0.61486892  0.74575548    -0.24200
H520        H  0.97085072  0.64921295  0.68349212     0.14800
H521        H  0.87331400  0.49755802  0.72043348     0.14800
C522        C  0.84251815  0.53027876  0.65827187    -0.24200
H523        H  0.02332151  0.64539978  0.73154071     0.05000
H524        H  0.03051676  0.58471470  0.75206785     0.08200
H525        H  0.98682642  0.63178598  0.77035770     0.08200
H526        H  0.85768057  0.51819752  0.63215635     0.08200
H527        H  0.81149840  0.55840280  0.65509897     0.08200
H528        H  0.82555713  0.49628037  0.67096502     0.05000
C529        C  0.78120319  0.74644354  0.77752767    -0.20800
C530        C  0.74942184  0.78853684  0.78335571    -0.07400
C531        C  0.72513857  0.81157960  0.75439536     0.13500
C532        C  0.73360191  0.79181319  0.72051997    -0.20900
C533        C  0.76512440  0.74948620  0.71480137    -0.07400
C534        C  0.78881462  0.72606872  0.74380658     0.13500
C535        C  0.82072287  0.67857615  0.73982867    -0.24200
H536        H  0.79881465  0.72810450  0.79975550     0.14800
H537        H  0.71642526  0.81034370  0.69820101     0.14800
C538        C  0.69144634  0.85777659  0.75859268    -0.24200
H539        H  0.83145640  0.66277683  0.76574046     0.05000
H540        H  0.85661623  0.68681176  0.72529348     0.08200
H541        H  0.79896532  0.64895427  0.72567024     0.08200
H542        H  0.71226697  0.88839448  0.77241566     0.08200
H543        H  0.65623836  0.84817308  0.77351578     0.08200
H544        H  0.67931761  0.87275796  0.73277521     0.05000
C545        C  0.69382641  0.55398682  0.65305621    -0.20800
C546        C  0.70480383  0.55919548  0.61697462    -0.07400
C547        C  0.67874057  0.52910775  0.59241219     0.13500
C548        C  0.63906632  0.49795274  0.60434260    -0.20900
C549        C  0.62366456  0.49775327  0.63998851    -0.07400
C550        C  0.65339944  0.52361869  0.66494497     0.13500
C551        C  0.64222630  0.52022902  0.70386324    -0.24200
H552        H  0.71481999  0.57652474  0.67183492     0.14800
H553        H  0.61659852  0.47789106  0.58506978     0.14800
C554        C  0.68914313  0.53340682  0.55341932    -0.24200
H555        H  0.67177886  0.53980995  0.71947446     0.05000
H556        H  0.64144930  0.47980763  0.71195149     0.08200
H557        H  0.60522117  0.53833461  0.71051213     0.08200
H558        H  0.72907580  0.52224278  0.54744039     0.08200
H559        H  0.68276649  0.57306319  0.54472408     0.08200
H560        H  0.66383240  0.50838345  0.53792009     0.05000
C561        C  0.68116775  0.70000759  0.48291204    -0.20800
C562        C  0.73154784  0.68248687  0.48628365    -0.07400
C563        C  0.75659833  0.66308153  0.45562880     0.13500
C564        C  0.72957801  0.65816139  0.42406906    -0.20900
C565        C  0.67799188  0.67179235  0.42153894    -0.07400
C566        C  0.65416697  0.69511724  0.45130094     0.13500
C567        C  0.59989240  0.71384487  0.45084103    -0.17800
H568        H  0.66183699  0.71635581  0.50562865     0.14800
H569        H  0.74870044  0.64145015  0.40138924     0.14800
C570        C  0.81141124  0.64601155  0.45554500    -0.24200
H571        H  0.58848883  0.73230532  0.47606380     0.05000
H572        H  0.57349972  0.68168361  0.44666676     0.08200
H573        H  0.59543886  0.74239405  0.42971217     0.08200
H574        H  0.81610949  0.61348877  0.47366819     0.08200
H575        H  0.83625520  0.67796636  0.46349497     0.08200
H576        H  0.82456706  0.63321665  0.42906574     0.05000
C577        C  0.64107354  0.47431112  0.18026932    -0.20800
C578        C  0.61514994  0.42838231  0.17460432    -0.07400
C579        C  0.57990831  0.41216044  0.20095403     0.13500
C580        C  0.57367286  0.44081824  0.23221435    -0.20900
C581        C  0.60181127  0.48526522  0.23865054    -0.07400
C582        C  0.63548081  0.50252658  0.21161148     0.13500
C583        C  0.66786352  0.54938239  0.21562907    -0.24200
H584        H  0.66816259  0.48736810  0.16057987     0.14800
H585        H  0.54739509  0.42740428  0.25230736     0.14800
C586        C  0.54888261  0.36448604  0.19694171    -0.24200
H587        H  0.69263509  0.55607156  0.19219862     0.05000
H588        H  0.69317075  0.54519246  0.23857910     0.08200
H589        H  0.64321853  0.58335331  0.21894639     0.08200
H590        H  0.57411401  0.33069639  0.19689696     0.08200
H591        H  0.52713977  0.36599738  0.17214060     0.08200
H592        H  0.52107984  0.35972650  0.21894874     0.05000
C593        C  0.83765452  0.50021370  0.10556458    -0.20800
C594        C  0.82759804  0.45714248  0.12601479    -0.07400
C595        C  0.85202339  0.45200757  0.15881243     0.13500
C596        C  0.89167885  0.48503985  0.16722590    -0.20900
C597        C  0.90787578  0.52290517  0.14376740    -0.07400
C598        C  0.87734136  0.53359406  0.11410255     0.13500
C599        C  0.88764711  0.57785241  0.09002095    -0.24200
H600        H  0.81707554  0.50566970  0.08136507     0.14800
H601        H  0.91276957  0.47854506  0.19109589     0.14800
C602        C  0.83727694  0.41150012  0.18500461    -0.24200
H603        H  0.85802165  0.58149784  0.06963472     0.05000
H604        H  0.92467558  0.57294157  0.07605251     0.08200
H605        H  0.88767662  0.61363060  0.10553730     0.08200
H606        H  0.84854961  0.37338465  0.17521276     0.08200
H607        H  0.79559450  0.41277927  0.18997365     0.08200
H608        H  0.85634526  0.41715613  0.21060888     0.05000
C609        C  0.77544994  0.37552144  0.96203159    -0.20800
C610        C  0.80026930  0.34713133  0.98808725    -0.07400
C611        C  0.84922597  0.32701654  0.97951580     0.13500
C612        C  0.87227646  0.33820920  0.94670582    -0.20900
C613        C  0.84893183  0.36959351  0.92170355    -0.07400
C614        C  0.79882341  0.38732447  0.92942004     0.13500
C615        C  0.76966596  0.42017004  0.90425799    -0.24200
H616        H  0.73783146  0.39058481  0.96766450     0.14800
H617        H  0.91016339  0.32371321  0.94120518     0.14800
C618        C  0.87865421  0.29451230  0.00471364    -0.24200
H619        H  0.73078498  0.42911363  0.91431677     0.05000
H620        H  0.76552949  0.40014882  0.87871462     0.08200
H621        H  0.78962399  0.45684340  0.90033792     0.08200
H622        H  0.85590407  0.26063189  0.01207765     0.08200
H623        H  0.88828700  0.31681330  0.02852231     0.08200
H624        H  0.91508402  0.28075196  0.99294789     0.05000
C625        C  0.77737246  0.38887575  0.35474932    -0.20800
C626        C  0.77299371  0.36921733  0.38908773    -0.07400
C627        C  0.74396917  0.39636086  0.41455072     0.13500
C628        C  0.71591309  0.43889381  0.40406328    -0.20900
C629        C  0.71584318  0.45490703  0.36886727    -0.07400
C630        C  0.74881366  0.43115550  0.34423671     0.13500
C631        C  0.75101755  0.44767203  0.30632892    -0.24200
H632        H  0.79991677  0.36861744  0.33514435     0.14800
H633        H  0.69130940  0.45799743  0.42305827     0.14800
C634        C  0.74146661  0.38045209  0.45260063    -0.24200
H635        H  0.77721293  0.42350758  0.29030616     0.05000
H636        H  0.76480257  0.48737918  0.30473573     0.08200
H637        H  0.71260999  0.44532467  0.29466449     0.08200
H638        H  0.78056902  0.37660902  0.46295315     0.08200
H639        H  0.72089421  0.34399491  0.45544609     0.08200
H640        H  0.72085618  0.40885257  0.46913914     0.05000
C641        C  0.74559023  0.28253012  0.27901013    -0.20800
C642        C  0.77544740  0.23941920  0.28505004    -0.07400
C643        C  0.79678303  0.21247704  0.25605628     0.13500
C644        C  0.78829171  0.23008106  0.22188354    -0.20900
C645        C  0.75825450  0.27315428  0.21586758    -0.07400
C646        C  0.73644480  0.29969810  0.24488103     0.13500
C647        C  0.70439393  0.34678120  0.24040372    -0.24200
H648        H  0.73010120  0.30363118  0.30125474     0.14800
H649        H  0.80384751  0.20906316  0.19962196     0.14800
C650        C  0.82695945  0.16426763  0.26068707    -0.24200
H651        H  0.69387087  0.36423637  0.26610527     0.05000
H652        H  0.66826909  0.33738005  0.22719347     0.08200
H653        H  0.72570223  0.37540961  0.22480794     0.08200
H654        H  0.80451347  0.13666756  0.27648209     0.08200
H655        H  0.86321667  0.17256587  0.27395511     0.08200
H656        H  0.83669587  0.14606981  0.23504884     0.05000
C657        C  0.04426465  0.31153647  0.78416213    -0.20800
C658        C  0.99132127  0.31642271  0.78991066    -0.07400
C659        C  0.96096472  0.27238237  0.78892621     0.13500
C660        C  0.98499901  0.22480756  0.78878985    -0.20900
C661        C  0.03821957  0.22060483  0.79180205    -0.07400
C662        C  0.06836888  0.26405527  0.78617325     0.13500
C663        C  0.12561772  0.26149908  0.78644148    -0.24200
H664        H  0.06750565  0.34547597  0.78346028     0.14800
H665        H  0.96187622  0.19099811  0.79164381     0.14800
C666        C  0.90384290  0.27488291  0.79247482    -0.24200
H667        H  0.14305318  0.29924165  0.78164789     0.05000
H668        H  0.13931576  0.23525717  0.76543639     0.08200
H669        H  0.13877257  0.24788241  0.81237355     0.08200
H670        H  0.88820473  0.29831598  0.77096239     0.08200
H671        H  0.89274499  0.29160941  0.81831477     0.08200
H672        H  0.88632352  0.23664508  0.79084286     0.05000
C673        C  0.83286126  0.97449547  0.84495428    -0.20800
C674        C  0.81606899  0.97532111  0.88021197    -0.07400
C675        C  0.83557941  0.01238011  0.90326684     0.13500
C676        C  0.87587585  0.04321870  0.89156915    -0.20900
C677        C  0.89798363  0.03653357  0.85788896    -0.07400
C678        C  0.87302760  0.00522625  0.83334280     0.13500
C679        C  0.88885124  0.00210797  0.79514971    -0.24200
H680        H  0.81623924  0.94771626  0.82669315     0.14800
H681        H  0.89399681  0.06812998  0.91034599     0.14800
C682        C  0.81780707  0.01623864  0.94105399    -0.24200
H683        H  0.85532142  0.00947774  0.77845906     0.05000
H684        H  0.90381754  0.96359123  0.78908080     0.08200
H685        H  0.91805367  0.03071660  0.78800377     0.08200
H686        H  0.82427008  0.97961967  0.95464756     0.08200
H687        H  0.77669261  0.02587612  0.94212634     0.08200
H688        H  0.83856467  0.04617889  0.95562355     0.05000
C689        C  0.24897761  0.94356713  0.84848848    -0.20800
C690        C  0.20869295  0.95671769  0.87122337    -0.07400
C691        C  0.20752590  0.93706013  0.90584056     0.13500
C692        C  0.24212958  0.89900790  0.91480048    -0.20900
C693        C  0.27724778  0.87968348  0.88999545    -0.07400
C694        C  0.28352442  0.90523004  0.85735508     0.13500
C695        C  0.32398676  0.89070043  0.83061661    -0.24200
H696        H  0.25106223  0.96046645  0.82255993     0.14800
H697        H  0.23877816  0.88123687  0.94039599     0.14800
C698        C  0.16943290  0.95501912  0.93332659    -0.24200
H699        H  0.32390494  0.91625075  0.80745207     0.05000
H700        H  0.31751661  0.85169028  0.82072892     0.08200
H701        H  0.36209223  0.89329749  0.84270945     0.08200
H702        H  0.13042574  0.94296496  0.92644062     0.08200
H703        H  0.17085841  0.99698851  0.93567315     0.08200
H704        H  0.17758799  0.93894348  0.95961949     0.05000
C705        C  0.12867718  0.00439195  0.71226651    -0.20800
C706        C  0.09306106  0.98526881  0.73669155    -0.07400
C707        C  0.06425669  0.94193317  0.72688572     0.13500
C708        C  0.07351807  0.91834753  0.69401050    -0.20900
C709        C  0.11115004  0.93596402  0.67038979    -0.07400
C710        C  0.13864373  0.98038712  0.67978375     0.13500
C711        C  0.18087257  0.00174835  0.65702333    -0.24200
H712        H  0.15101513  0.03730802  0.71932208     0.14800
H713        H  0.05219931  0.88462811  0.68724771     0.14800
C714        C  0.02371493  0.91973434  0.75066213    -0.24200
H715        H  0.19866623  0.03574603  0.66900911     0.05000
H716        H  0.16576414  0.01337216  0.63116120     0.08200
H717        H  0.21126494  0.97289745  0.65344449     0.08200
H718        H  0.99552053  0.94946561  0.75806421     0.08200
H719        H  0.04116798  0.90372234  0.77459235     0.08200
H720        H  0.00286092  0.88840235  0.73763589     0.05000
C721        C  0.96225140  0.76677217  0.21879296    -0.20800
C722        C  0.99247053  0.80978448  0.21352137    -0.07400
C723        C  0.04576877  0.80554159  0.21836931     0.13500
C724        C  0.06839801  0.75729540  0.21821930    -0.20900
C725        C  0.03823167  0.71390482  0.21495845    -0.07400
C726        C  0.98489251  0.71861805  0.22048726     0.13500
C727        C  0.95090837  0.67301606  0.22463037    -0.24200
H728        H  0.92119972  0.76974659  0.21729321     0.14800
H729        H  0.10946511  0.75417689  0.21616929     0.14800
C730        C  0.07977199  0.85138059  0.22040812    -0.24200
H731        H  0.92781269  0.67700906  0.24916646     0.05000
H732        H  0.97307994  0.63727601  0.22660995     0.08200
H733        H  0.92500018  0.67016386  0.20189239     0.08200
H734        H  0.05768142  0.88730301  0.22150064     0.08200
H735        H  0.10591231  0.85226272  0.19721877     0.08200
H736        H  0.10263146  0.84941017  0.24470029     0.05000
C737        C  0.79716533  0.87460509  0.07492870    -0.20800
C738        C  0.84877203  0.86016884  0.07631921    -0.07400
C739        C  0.87139277  0.83947990  0.04517298     0.13500
C740        C  0.84286006  0.83603314  0.01405499    -0.20900
C741        C  0.79202971  0.85289203  0.01215393    -0.07400
C742        C  0.76871667  0.87148754  0.04371052     0.13500
C743        C  0.71414116  0.88921994  0.04513565    -0.24200
H744        H  0.77903979  0.89022672  0.09834881     0.14800
H745        H  0.86136429  0.82120424  0.99053514     0.14800
C746        C  0.92607320  0.82202586  0.04362273    -0.24200
H747        H  0.70222801  0.90121206  0.07205980     0.05000
H748        H  0.68857706  0.85790753  0.03706464     0.08200
H749        H  0.70917061  0.92244609  0.02767017     0.08200
H750        H  0.93224695  0.79181718  0.06337496     0.08200
H751        H  0.95187913  0.85443965  0.04852822     0.08200
H752        H  0.93669236  0.80606421  0.01744687     0.05000
C753        C  0.77363711  0.08054720  0.15082523    -0.20800
C754        C  0.81247440  0.06388771  0.12811573    -0.07400
C755        C  0.81491519  0.08284877  0.09333662     0.13500
C756        C  0.78476930  0.12468077  0.08446605    -0.20900
C757        C  0.75155847  0.14707193  0.10926437    -0.07400
C758        C  0.74260328  0.12172982  0.14180851     0.13500
C759        C  0.70328806  0.13939127  0.16846942    -0.24200
H760        H  0.77048605  0.06427353  0.17690819     0.14800
H761        H  0.78980383  0.14210094  0.05887549     0.14800
C762        C  0.84966636  0.05963334  0.06566406    -0.24200
H763        H  0.70102343  0.11377337  0.19156413     0.05000
H764        H  0.66516604  0.13999177  0.15627483     0.08200
H765        H  0.71297036  0.17765544  0.17848203     0.08200
H766        H  0.84224323  0.01825583  0.06368006     0.08200
H767        H  0.89013750  0.06596410  0.07211675     0.08200
H768        H  0.84326270  0.07646889  0.03935405     0.05000
C769        C  0.95216432  0.08482812  0.26924129    -0.20800
C770        C  0.93034208  0.03633129  0.26512719    -0.07400
C771        C  0.90669104  0.01405014  0.29515918     0.13500
C772        C  0.90175130  0.04229042  0.32664488    -0.20900
C773        C  0.91970029  0.09245914  0.32973349    -0.07400
C774        C  0.94749470  0.11294005  0.30077472     0.13500
C775        C  0.97165876  0.16480407  0.30205840    -0.24200
H776        H  0.97188019  0.10200149  0.24710926     0.14800
H777        H  0.88163250  0.02540225  0.34872039     0.14800
C778        C  0.88543660  0.96095952  0.29459769    -0.24200
H779        H  0.99370601  0.17327965  0.27765345     0.05000
H780        H  0.99837319  0.16687164  0.32437486     0.08200
H781        H  0.94205356  0.19463745  0.30488405     0.08200
H782        H  0.91590835  0.93357177  0.28713120     0.08200
H783        H  0.85364661  0.95855481  0.27577202     0.08200
H784        H  0.87017050  0.94943789  0.32075335     0.05000
C785        C  0.04544382  0.04765265  0.99178009    -0.20800
C786        C  0.02296083  0.01882734  0.96500331    -0.07400
C787        C  0.98552292  0.98238221  0.97397048     0.13500
C788        C  0.97232887  0.97565491  0.00941367    -0.20900
C789        C  0.99513907  0.00437135  0.03613027    -0.07400
C790        C  0.03157412  0.04166303  0.02705476     0.13500
C791        C  0.05677645  0.07509857  0.05397634    -0.24200
H792        H  0.07398166  0.07576580  0.98505050     0.14800
H793        H  0.94402390  0.94739368  0.01634708     0.14800
C794        C  0.95847862  0.95098937  0.94676946    -0.24200
H795        H  0.08540433  0.10086180  0.04185967     0.05000
H796        H  0.07670378  0.05155047  0.07347589     0.08200
H797        H  0.02776072  0.09914951  0.06748397     0.08200
H798        H  0.98619622  0.92633755  0.93250456     0.08200
H799        H  0.93904785  0.97616612  0.92792911     0.08200
H800        H  0.92911846  0.92595805  0.95881092     0.05000
C801        C  0.48100038  0.22299277  0.72118711    -0.20800
C802        C  0.53378037  0.21948414  0.71456353    -0.07400
C803        C  0.56339518  0.26389026  0.71649249     0.13500
C804        C  0.53844494  0.31088193  0.71634288    -0.20900
C805        C  0.48526176  0.31359517  0.71260166    -0.07400
C806        C  0.45597510  0.26994746  0.71947012     0.13500
C807        C  0.39872889  0.27166782  0.72095552    -0.24200
H808        H  0.45852306  0.18854490  0.72189388     0.14800
H809        H  0.56087516  0.34514427  0.71343345     0.14800
C810        C  0.62064245  0.26237238  0.71405876    -0.24200
H811        H  0.38229290  0.23396097  0.72732940     0.05000
H812        H  0.38357152  0.28358317  0.69517188     0.08200
H813        H  0.38605341  0.29883072  0.74170076     0.08200
H814        H  0.63315878  0.24677875  0.68818531     0.08200
H815        H  0.63570128  0.23839382  0.73548897     0.08200
H816        H  0.63740714  0.30082134  0.71675426     0.05000
C817        C  0.32698939  0.97299804  0.65274050    -0.20800
C818        C  0.31473828  0.97124390  0.61691842    -0.07400
C819        C  0.33854030  0.00508389  0.59331211     0.13500
C820        C  0.37819809  0.03573370  0.60548065    -0.20900
C821        C  0.39525416  0.03224929  0.64038434    -0.07400
C822        C  0.36712427  0.00291929  0.66483298     0.13500
C823        C  0.37993392  0.00159651  0.70335414    -0.24200
H824        H  0.30737219  0.94793576  0.67095371     0.14800
H825        H  0.39916146  0.05868962  0.58666554     0.14800
C826        C  0.32536009  0.00592987  0.55485977    -0.24200
H827        H  0.35089102  0.98039286  0.71886277     0.05000
H828        H  0.38147832  0.04085803  0.71396051     0.08200
H829        H  0.41689661  0.98235246  0.70731644     0.08200
H830        H  0.28501464  0.01743758  0.55190413     0.08200
H831        H  0.33107224  0.96771117  0.54309594     0.08200
H832        H  0.34940504  0.03315339  0.53986612     0.05000
C833        C  0.72114719  0.13601859  0.57179665    -0.20800
C834        C  0.67779713  0.16590928  0.57912553    -0.07400
C835        C  0.66448279  0.20366283  0.55427813     0.13500
C836        C  0.69291355  0.20827531  0.52258355    -0.20900
C837        C  0.73457382  0.17637228  0.51448446    -0.07400
C838        C  0.74927388  0.14028086  0.54014722     0.13500
C839        C  0.79296917  0.10390335  0.53410594    -0.24200
H840        H  0.73200636  0.10698833  0.59035030     0.14800
H841        H  0.68167484  0.23649671  0.50354585     0.14800
C842        C  0.62042136  0.23937328  0.56059136    -0.24200
H843        H  0.79747055  0.07718004  0.55636770     0.05000
H844        H  0.82916204  0.12523596  0.53138030     0.08200
H845        H  0.78628223  0.08083367  0.51011226     0.08200
H846        H  0.62499102  0.25927772  0.58614721     0.08200
H847        H  0.58403525  0.21812578  0.56054533     0.08200
H848        H  0.61807462  0.26866638  0.53975507     0.05000
C849        C  0.77057246  0.89482198  0.64052950    -0.20800
C850        C  0.76259387  0.87177774  0.60757758    -0.07400
C851        C  0.72860673  0.89478699  0.58384830     0.13500
C852        C  0.69934296  0.93621603  0.59537583    -0.20900
C853        C  0.70272263  0.95478410  0.62992718    -0.07400
C854        C  0.74063041  0.93572573  0.65220428     0.13500
C855        C  0.74703848  0.95542049  0.68916911    -0.24200
H856        H  0.79705716  0.87792245  0.65868502     0.14800
H857        H  0.67125375  0.95226862  0.57797941     0.14800
C858        C  0.72172103  0.87548611  0.54679205    -0.24200
H859        H  0.77701461  0.93438967  0.70340251     0.05000
H860        H  0.71085465  0.95139678  0.70429938     0.08200
H861        H  0.75818148  0.99599527  0.68841838     0.08200
H862        H  0.70238039  0.83815165  0.54688262     0.08200
H863        H  0.75931720  0.87224014  0.53328457     0.08200
H864        H  0.69780631  0.90162327  0.53117934     0.05000
C865        C  0.63109850  0.00293759  0.78500580    -0.20800
C866        C  0.58978578  0.98833708  0.76420675    -0.07400
C867        C  0.55666805  0.95015146  0.77743777     0.13500
C868        C  0.56681411  0.92703324  0.81015824    -0.20900
C869        C  0.60934621  0.94052113  0.83030599    -0.07400
C870        C  0.64178726  0.97944351  0.81722354     0.13500
C871        C  0.69007190  0.99448605  0.83552242    -0.24200
H872        H  0.65707483  0.03159212  0.77513853     0.14800
H873        H  0.54192469  0.89720518  0.81966211     0.14800
C874        C  0.51029179  0.93370481  0.75758473    -0.24200
H875        H  0.71184082  0.02365573  0.82066367     0.05000
H876        H  0.71511342  0.96080494  0.83802416     0.08200
H877        H  0.68103026  0.01069370  0.86185970     0.08200
H878        H  0.52176092  0.91505562  0.73249228     0.08200
H879        H  0.48596579  0.96716781  0.75219026     0.08200
H880        H  0.48708443  0.90603072  0.77279851     0.05000
C881        C  0.48513035  0.71931414  0.28328265    -0.20800
C882        C  0.53819708  0.71626528  0.28787274    -0.07400
C883        C  0.56746657  0.76066801  0.28349665     0.13500
C884        C  0.54226727  0.80761758  0.28245701    -0.20900
C885        C  0.48916708  0.81079434  0.28766848    -0.07400
C886        C  0.45992608  0.76627008  0.28436335     0.13500
C887        C  0.40264263  0.76731939  0.28640584    -0.24200
H888        H  0.46271206  0.68485487  0.28452892     0.14800
H889        H  0.56460876  0.84214791  0.28309119     0.14800
C890        C  0.62474707  0.75968921  0.28408000    -0.24200
H891        H  0.38615540  0.72888362  0.28292681     0.05000
H892        H  0.38769718  0.79199525  0.26532125     0.08200
H893        H  0.38970963  0.78188837  0.31247544     0.08200
H894        H  0.63941574  0.73384994  0.26313568     0.08200
H895        H  0.63805463  0.74667303  0.31011002     0.08200
H896        H  0.64114606  0.79790273  0.27933192     0.05000
C897        C  0.36014309  0.82988358  0.44376623    -0.20800
C898        C  0.33965930  0.86352684  0.41904832    -0.07400
C899        C  0.29215719  0.88711341  0.42728752     0.13500
C900        C  0.26855358  0.87822267  0.46011572    -0.20900
C901        C  0.29097394  0.84758125  0.48581663    -0.07400
C902        C  0.33701572  0.82193430  0.47690269     0.13500
C903        C  0.36255554  0.78600964  0.50183686    -0.24200
H904        H  0.39595920  0.81111358  0.43779366     0.14800
H905        H  0.23320997  0.89769280  0.46636310     0.14800
C906        C  0.26646153  0.92367285  0.40272900    -0.24200
H907        H  0.39597217  0.76680721  0.48945791     0.05000
H908        H  0.33517292  0.75623967  0.50994659     0.08200
H909        H  0.37650151  0.80689670  0.52517037     0.08200
H910        H  0.25884019  0.90468398  0.37723403     0.08200
H911        H  0.29075409  0.95758475  0.39859864     0.08200
H912        H  0.22937927  0.93738326  0.41347285     0.05000
C913        C  0.63865143  0.99849798  0.39676660    -0.20800
C914        C  0.62104356  0.00159675  0.36200534    -0.07400
C915        C  0.64965379  0.02923573  0.33685988     0.13500
C916        C  0.69189357  0.05712650  0.34796332    -0.20900
C917        C  0.70568604  0.05868724  0.38351736    -0.07400
C918        C  0.68024349  0.02731751  0.40797544     0.13500
C919        C  0.69389049  0.02749525  0.44636406    -0.24200
H920        H  0.61695997  0.97720652  0.41614186     0.14800
H921        H  0.71221824  0.08076409  0.32920160     0.14800
C922        C  0.63540383  0.03057919  0.29858425    -0.24200
H923        H  0.66859029  0.00230608  0.46209108     0.05000
H924        H  0.69038033  0.06648679  0.45729572     0.08200
H925        H  0.73360352  0.01400465  0.44938006     0.08200
H926        H  0.66455151  0.05060891  0.28242054     0.08200
H927        H  0.59889717  0.05096838  0.29516819     0.08200
H928        H  0.63211452  0.99127254  0.28827218     0.05000
C929        C  0.53172668  0.03727021  0.47264723    -0.20800
C930        C  0.49193878  0.00302158  0.46662662    -0.07400
C931        C  0.46755764  0.97932997  0.49574184     0.13500
C932        C  0.48332074  0.99120242  0.52988571    -0.20900
C933        C  0.52289788  0.02572562  0.53589762    -0.07400
C934        C  0.54771700  0.04889276  0.50674362     0.13500
C935        C  0.59192295  0.08488775  0.51094136    -0.24200
H936        H  0.55127722  0.05439562  0.45038823     0.14800
H937        H  0.46378612  0.97407729  0.55214966     0.14800
C938        C  0.42419127  0.94241006  0.49141674    -0.24200
H939        H  0.60884120  0.09584097  0.48515587     0.05000
H940        H  0.62224101  0.06662713  0.52655237     0.08200
H941        H  0.57916788  0.12048372  0.52401062     0.08200
H942        H  0.43770635  0.90745834  0.47787258     0.08200
H943        H  0.39324882  0.96025687  0.47616440     0.08200
H944        H  0.40794735  0.93039792  0.51716955     0.05000
C945        C  0.47415671  0.29134094  0.03551161    -0.20800
C946        C  0.47154129  0.23814475  0.03910276    -0.07400
C947        C  0.51648986  0.20947878  0.03424959     0.13500
C948        C  0.56329317  0.23503085  0.03279388    -0.20900
C949        C  0.56596372  0.28778583  0.03877039    -0.07400
C950        C  0.52101796  0.31674265  0.03650724     0.13500
C951        C  0.52160910  0.37373693  0.03955687    -0.24200
H952        H  0.43936243  0.31340884  0.03743078     0.14800
H953        H  0.59815626  0.21296483  0.03287311     0.14800
C954        C  0.51621276  0.15234317  0.03498693    -0.24200
H955        H  0.48291471  0.39016315  0.03690173     0.05000
H956        H  0.54620956  0.38981881  0.01842622     0.08200
H957        H  0.53621968  0.38535207  0.06562518     0.08200
H958        H  0.49119683  0.13765246  0.01400250     0.08200
H959        H  0.50234852  0.13879263  0.06100860     0.08200
H960        H  0.55488938  0.13633977  0.03046613     0.05000
C961        C  0.25384396  0.39438229  0.08748355    -0.20800
C962        C  0.28033013  0.36942206  0.11412390    -0.07400
C963        C  0.28284282  0.39263476  0.14795417     0.13500
C964        C  0.25273108  0.43558294  0.15531110    -0.20900
C965        C  0.22110044  0.45620719  0.12974863    -0.07400
C966        C  0.22472990  0.43790426  0.09476304     0.13500
C967        C  0.19755648  0.46381715  0.06508399    -0.24200
H968        H  0.25363197  0.37816230  0.06123807     0.14800
H969        H  0.25082417  0.45062271  0.18188463     0.14800
C970        C  0.31429703  0.37112093  0.17726029    -0.24200
H971        H  0.20790084  0.44675339  0.03918947     0.05000
H972        H  0.20832688  0.50452811  0.06436522     0.08200
H973        H  0.15574040  0.46050689  0.06839336     0.08200
H974        H  0.35502187  0.37026166  0.16915592     0.08200
H975        H  0.30141539  0.33235990  0.18384195     0.08200
H976        H  0.31110128  0.39428713  0.20166888     0.05000
C977        C  0.44177523  0.11669370  0.19765299    -0.20800
C978        C  0.41736608  0.09066822  0.17020095    -0.07400
C979        C  0.40268296  0.03953162  0.17624282     0.13500
C980        C  0.41077605  0.01739360  0.20943499    -0.20900
C981        C  0.43223365  0.04454899  0.23761408    -0.07400
C982        C  0.44897515  0.09495523  0.23102730     0.13500
C983        C  0.47351475  0.12725768  0.25888470    -0.24200
H984        H  0.45350751  0.15563171  0.19359734     0.14800
H985        H  0.39832052  0.97871881  0.21365656     0.14800
C986        C  0.37741874  0.00776435  0.14841970    -0.24200
H987        H  0.48526588  0.16490504  0.24860682     0.05000
H988        H  0.50819835  0.10812230  0.26864961     0.08200
H989        H  0.44619694  0.13430245  0.28089956     0.08200
H990        H  0.40185696  0.00622653  0.12438021     0.08200
H991        H  0.33958098  0.02386346  0.14215426     0.08200
H992        H  0.37109234  0.96813597  0.15726386     0.05000
C993        C  0.19189577  0.05900987  0.15192634    -0.20800
C994        C  0.20795350  0.05774911  0.11651822    -0.07400
C995        C  0.18621918  0.02207738  0.09348201     0.13500
C996        C  0.14561595  0.99203373  0.10568961    -0.20900
C997        C  0.12457930  0.99877540  0.13973469    -0.07400
C998        C  0.15031096  0.03025147  0.16385800     0.13500
C999        C  0.13385965  0.03466540  0.20191652    -0.24200
H1000       H  0.20988474  0.08536426  0.16983748     0.14800
H1001       H  0.12677962  0.96725078  0.08717569     0.14800
C1002       C  0.20233178  0.01883559  0.05533211    -0.24200
H1003       H  0.16158035  0.05688358  0.21746329     0.05000
H1004       H  0.13104373  0.99628364  0.21370475     0.08200
H1005       H  0.09670921  0.05441248  0.20435119     0.08200
H1006       H  0.24307762  0.00795911  0.05329727     0.08200
H1007       H  0.19657372  0.05609933  0.04243235     0.08200
H1008       H  0.17996058  0.99009372  0.04076139     0.05000
C1009       C  0.17336820  0.20048849  0.94378482    -0.20800
C1010       C  0.18883649  0.16184860  0.92030307    -0.07400
C1011       C  0.23358627  0.13398005  0.92842693     0.13500
C1012       C  0.25885913  0.14330107  0.96033074    -0.20900
C1013       C  0.24094762  0.17919564  0.98511635    -0.07400
C1014       C  0.19848605  0.20959864  0.97577630     0.13500
C1015       C  0.17874427  0.25177630  0.99919028    -0.24200
H1016       H  0.13991698  0.22270063  0.93770681     0.14800
H1017       H  0.29158124  0.12022951  0.96672123     0.14800
C1018       C  0.25389232  0.09225284  0.90482690    -0.24200
H1019       H  0.14846700  0.27414128  0.98627446     0.05000
H1020       H  0.21015333  0.27822008  0.00559666     0.08200
H1021       H  0.16186945  0.23595125  0.02368323     0.08200
H1022       H  0.22489847  0.06205058  0.90206040     0.08200
H1023       H  0.28861472  0.07431421  0.91556128     0.08200
H1024       H  0.26414178  0.10788753  0.87861346     0.05000
C1025       C  0.01730290  0.31517976  0.46722257    -0.20800
C1026       C  0.06061595  0.28510963  0.46178489    -0.07400
C1027       C  0.05622015  0.23169427  0.46553549     0.13500
C1028       C  0.00784132  0.20940067  0.46536069    -0.20900
C1029       C  0.96438216  0.23975328  0.46261016    -0.07400
C1030       C  0.96893372  0.29279025  0.46834728     0.13500
C1031       C  0.92313114  0.32687244  0.47234610    -0.24200
H1032       H  0.02038005  0.35615907  0.46620364     0.14800
H1033       H  0.00474357  0.16854033  0.46282245     0.14800
C1034       C  0.10206352  0.19726979  0.46613026    -0.24200
H1035       H  0.92628650  0.34941242  0.49694956     0.05000
H1036       H  0.88713367  0.30501376  0.47410540     0.08200
H1037       H  0.92120789  0.35317236  0.44965942     0.08200
H1038       H  0.09995560  0.17278038  0.48979353     0.08200
H1039       H  0.13822014  0.21886021  0.46734343     0.08200
H1040       H  0.10284549  0.17282770  0.44226467     0.05000
C1041       C  0.08162843  0.41499787  0.30316967    -0.20800
C1042       C  0.11409711  0.43554400  0.32866197    -0.07400
C1043       C  0.13717497  0.48326994  0.32139679     0.13500
C1044       C  0.12937364  0.50684704  0.28866783    -0.20900
C1045       C  0.09997271  0.48436647  0.26216172    -0.07400
C1046       C  0.07442703  0.43820739  0.27025612     0.13500
C1047       C  0.03978075  0.41219290  0.24454981    -0.24200
H1048       H  0.06313246  0.37905420  0.30839622     0.14800
H1049       H  0.14853300  0.54237528  0.28323963     0.14800
C1050       C  0.17197385  0.50924982  0.34703029    -0.24200
H1051       H  0.02078478  0.37855113  0.25630211     0.05000
H1052       H  0.06200635  0.39852661  0.22134906     0.08200
H1053       H  0.00949826  0.43879864  0.23619898     0.08200
H1054       H  0.20598459  0.48533905  0.35167064     0.08200
H1055       H  0.15130537  0.51663116  0.37220082     0.08200
H1056       H  0.18580375  0.54634230  0.33700905     0.05000
C1057       C  0.24234501  0.13182823  0.35932946    -0.20800
C1058       C  0.24885960  0.15369628  0.39284997    -0.07400
C1059       C  0.28057891  0.12898311  0.41710355     0.13500
C1060       C  0.31115893  0.08863802  0.40537511    -0.20900
C1061       C  0.30999871  0.07161463  0.37029049    -0.07400
C1062       C  0.27298333  0.09138354  0.34755584     0.13500
C1063       C  0.26872461  0.07349352  0.31000707    -0.24200
H1064       H  0.21725685  0.14986994  0.34075388     0.14800
H1065       H  0.33800612  0.07191572  0.42340084     0.14800
C1066       C  0.28415102  0.14496292  0.45509506    -0.24200
H1067       H  0.23875736  0.09443755  0.29570587     0.05000
H1068       H  0.25870152  0.03261351  0.30949496     0.08200
H1069       H  0.30539765  0.07945253  0.29576425     0.08200
H1070       H  0.25511806  0.17370210  0.46266150     0.08200
H1071       H  0.32265484  0.16034855  0.46020999     0.08200
H1072       H  0.27758386  0.11153607  0.47224608     0.05000
C1073       C  0.30593263  0.22339477  0.24206962    -0.20800
C1074       C  0.27248949  0.23826701  0.21537460    -0.07400
C1075       C  0.23065432  0.27005855  0.22427265     0.13500
C1076       C  0.22506130  0.28745612  0.25888842    -0.20900
C1077       C  0.25892938  0.27340086  0.28550212    -0.07400
C1078       C  0.29978315  0.24024757  0.27690504     0.13500
C1079       C  0.33691327  0.22167304  0.30390131    -0.24200
H1080       H  0.33775453  0.19868649  0.23560370     0.14800
H1081       H  0.19334915  0.31237769  0.26516576     0.14800
C1082       C  0.19177573  0.28698001  0.19784639    -0.24200
H1083       H  0.36569103  0.19539457  0.29226170     0.05000
H1084       H  0.31637727  0.20073204  0.32498689     0.08200
H1085       H  0.35772278  0.25429448  0.31530434     0.08200
H1086       H  0.17258055  0.25337639  0.18642448     0.08200
H1087       H  0.21025682  0.30959687  0.17671561     0.08200
H1088       H  0.16171272  0.31127856  0.21001478     0.05000
C1089       C  0.38210475  0.49692974  0.33734812    -0.20800
C1090       C  0.40416185  0.52721702  0.36342673    -0.07400
C1091       C  0.37890519  0.53202194  0.39664969     0.13500
C1092       C  0.33696045  0.50085713  0.40423936    -0.20900
C1093       C  0.32007796  0.46516070  0.37974290    -0.07400
C1094       C  0.34016344  0.46596692  0.34501350     0.13500
C1095       C  0.31818616  0.43371088  0.31606638    -0.24200
H1096       H  0.39987414  0.49484450  0.31147485     0.14800
H1097       H  0.32026246  0.50116806  0.43048145     0.14800
C1098       C  0.39773414  0.56656696  0.42538311    -0.24200
H1099       H  0.33588416  0.44254261  0.29010873     0.05000
H1100       H  0.27669503  0.44097259  0.31418273     0.08200
H1101       H  0.32483753  0.39286007  0.32106706     0.08200
H1102       H  0.39842062  0.60636929  0.41596578     0.08200
H1103       H  0.43631174  0.55476653  0.43347548     0.08200
H1104       H  0.37276794  0.56539129  0.44918744     0.05000
C1105       C  0.27779655  0.39463832  0.53367490    -0.20800
C1106       C  0.29013354  0.35175098  0.51317398    -0.07400
C1107       C  0.32670974  0.31716642  0.52618291     0.13500
C1108       C  0.35075188  0.32731612  0.55846822    -0.20900
C1109       C  0.33976266  0.37129951  0.57833083    -0.07400
C1110       C  0.30238521  0.40535044  0.56550891     0.13500
C1111       C  0.29035372  0.45502965  0.58371014    -0.24200
H1112       H  0.25032817  0.42158712  0.52379638     0.14800
H1113       H  0.37936289  0.30120590  0.56785690     0.14800
C1114       C  0.34033616  0.26916871  0.50650601    -0.24200
H1115       H  0.26230842  0.47793442  0.56899411     0.05000
H1116       H  0.32554581  0.47798331  0.58587871     0.08200
H1117       H  0.27382860  0.44795888  0.61024970     0.08200
H1118       H  0.35953486  0.27837169  0.48117176     0.08200
H1119       H  0.30539312  0.24680990  0.50153199     0.08200
H1120       H  0.36676817  0.24496159  0.52163959     0.05000
loop_ 
_geom_bond_atom_site_label_1 
_geom_bond_atom_site_label_2 
_geom_bond_distance 
_geom_bond_site_symmetry_2 
_ccdc_geom_bond_type 
Fe1          O17   2.078       .  S
Fe1           O7   2.015       .  S
Fe1          O14   2.022       .  S
Fe1           O6   2.079       .  S
Fe1          O12   1.944       .  S
Fe2           O5   2.095       .  S
Fe2           O9   2.050       .  S
Fe2          O13   2.100       .  S
Fe2          O18   2.037       .  S
Fe2          O12   1.941       .  S
Fe3          O21   2.072       .  S
Fe3           O8   2.093       .  S
Fe3          O15   2.120       .  S
Fe3           O4   2.069       .  S
Fe3          O12   1.950       .  S
O4           C11   1.265       .  A
O5           C19   1.274       .  A
O6           C11   1.269       .  A
O7           C10   1.265       .  A
O8           C20   1.277       .  A
O9           C22   1.269       .  A
C10          O15   1.282       .  A
C10        C1026   1.479       .  S
C11        C1042   1.508       .  S
O13          C16   1.274       .  A
O14          C16   1.263       .  A
C16        C1077   1.486       .  S
O17          C22   1.271       .  A
O18          C20   1.267       .  A
C19          O21   1.272       .  A
C19        C1106   1.500       .  S
C20        C1093   1.475       .  S
C22        C1058   1.481       .  S
Fe23         O39   2.034       .  S
Fe23         O29   2.073       .  S
Fe23         O36   2.076       .  S
Fe23         O28   2.020       .  S
Fe23         O34   1.946       .  S
Fe24         O27   2.039       .  S
Fe24         O31   2.091       .  S
Fe24         O35   2.062       .  S
Fe24         O40   2.093       .  S
Fe24         O34   1.929       .  S
Fe25         O43   2.095       .  S
Fe25         O30   2.084       .  S
Fe25         O37   2.080       .  S
Fe25         O26   2.126       .  S
Fe25         O34   1.949       .  S
O26          C33   1.285       .  A
O27          C41   1.267       .  A
O28          C33   1.267       .  A
O29          C32   1.266       .  A
O30          C42   1.276       .  A
O31          C44   1.275       .  A
C32          O37   1.265       .  A
C32         C978   1.508       .  S
C33         C946   1.484       .  S
O35          C38   1.270       .  A
O36          C38   1.267       .  A
C38         C962   1.487       .  S
O39          C44   1.267       .  A
O40          C42   1.275       .  A
C41          O43   1.275       .  A
C41         C994   1.478       .  S
C42        C1013   1.510   1_554  S
C44        C1074   1.485       .  S
Fe45         O61   2.031       .  S
Fe45         O51   2.081       .  S
Fe45         O58   2.082       .  S
Fe45         O50   2.025       .  S
Fe45         O56   1.941       .  S
Fe46         O49   2.035       .  S
Fe46         O53   2.103       .  S
Fe46         O57   2.049       .  S
Fe46         O62   2.100       .  S
Fe46         O56   1.929   1_545  S
Fe47         O65   2.094   1_565  S
Fe47         O52   2.067       .  S
Fe47         O59   2.057       .  S
Fe47         O48   2.114       .  S
Fe47         O56   1.947       .  S
O48          C55   1.281       .  A
O49          C63   1.266       .  A
O50          C55   1.267       .  A
O51          C54   1.270       .  A
O52          C64   1.272   1_565  A
O53          C66   1.278   1_545  A
C54          O59   1.263       .  A
C54         C898   1.502       .  S
C55         C885   1.481       .  S
O57          C60   1.267   1_545  A
O58          C60   1.271       .  A
C60         C914   1.479   1_565  S
O61          C66   1.263       .  A
O62          C64   1.276       .  A
C63          O65   1.276       .  A
C63        C1061   1.477       .  S
C64         C981   1.511       .  S
C66         C930   1.481   1_565  S
Fe67         O83   2.078       .  S
Fe67         O73   2.024       .  S
Fe67         O80   2.028       .  S
Fe67         O72   2.086       .  S
Fe67         O78   1.947       .  S
Fe68         O71   2.104   1_545  S
Fe68         O75   2.049       .  S
Fe68         O79   2.107       .  S
Fe68         O84   2.036   1_545  S
Fe68         O78   1.935       .  S
Fe69         O87   2.070       .  S
Fe69         O74   2.081       .  S
Fe69         O81   2.107       .  S
Fe69         O70   2.070       .  S
Fe69         O78   1.945       .  S
O70          C77   1.267       .  A
O71          C85   1.276   1_565  A
O72          C77   1.268       .  A
O73          C76   1.268       .  A
O74          C86   1.273   1_545  A
O75          C88   1.265       .  A
C76          O81   1.280       .  A
C76         C802   1.476       .  S
C77         C834   1.509       .  S
O79          C82   1.279       .  A
O80          C82   1.264       .  A
C82         C933   1.481       .  S
O83          C88   1.269       .  A
O84          C86   1.267       .  A
C85          O87   1.273       .  A
C85         C866   1.506   1_545  S
C86         C853   1.472       .  S
C88         C821   1.479       .  S
Fe89        O105   2.082   1_655  S
Fe89         O95   2.022   1_655  S
Fe89        O102   2.024       .  S
Fe89         O94   2.081       .  S
Fe89        O100   1.946       .  S
Fe90         O93   2.086       .  S
Fe90         O97   2.054   1_655  S
Fe90        O101   2.085       .  S
Fe90        O106   2.035       .  S
Fe90        O100   1.935   1_545  S
Fe91        O109   2.084       .  S
Fe91         O96   2.091       .  S
Fe91        O103   2.124       .  S
Fe91         O92   2.080       .  S
Fe91        O100   1.948       .  S
O92          C99   1.267       .  A
O93         C107   1.275       .  A
O94          C99   1.266       .  A
O95          C98   1.267   1_455  A
O96         C108   1.275   1_565  A
O97         C110   1.266   1_545  A
C98         O103   1.284       .  A
C98         C722   1.481       .  S
C99         C738   1.514       .  S
O101        C104   1.274   1_545  A
O102        C104   1.265       .  A
C104        C789   1.473   1_565  S
O105        C110   1.270       .  A
O106        C108   1.265       .  A
C107        O109   1.274   1_545  A
C107        C770   1.512       .  S
C108        C754   1.475       .  S
C110        C997   1.486       .  S
Fe111       O127   2.018       .  S
Fe111       O117   2.085       .  S
Fe111       O124   2.086   1_455  S
Fe111       O116   2.020       .  S
Fe111       O122   1.945       .  S
Fe112       O115   2.036       .  S
Fe112       O119   2.086   1_565  S
Fe112       O123   2.050   1_465  S
Fe112       O128   2.082       .  S
Fe112       O122   1.946   1_565  S
Fe113       O131   2.087       .  S
Fe113       O118   2.076       .  S
Fe113       O125   2.074       .  S
Fe113       O114   2.114       .  S
Fe113       O122   1.952       .  S
O114        C121   1.281       .  A
O115        C129   1.267       .  A
O116        C121   1.266       .  A
O117        C120   1.270       .  A
O118        C130   1.273       .  A
O119        C132   1.270       .  A
C120        O125   1.266       .  A
C120       C1010   1.509       .  S
C121        C661   1.481       .  S
O123        C126   1.270       .  A
O124        C126   1.273       .  A
C126        C677   1.483       .  S
O127        C132   1.261       .  A
O128        C130   1.270   1_565  A
C129        O131   1.276   1_565  A
C129        C690   1.475       .  S
C130        C706   1.504   1_545  S
C132        C786   1.476       .  S
Fe133       O149   2.088       .  S
Fe133       O139   2.022       .  S
Fe133       O146   2.028       .  S
Fe133       O138   2.085       .  S
Fe133       O144   1.942       .  S
Fe134       O137   2.109       .  S
Fe134       O141   2.052       .  S
Fe134       O145   2.109       .  S
Fe134       O150   2.034       .  S
Fe134       O144   1.929       .  S
Fe135       O153   2.070       .  S
Fe135       O140   2.095       .  S
Fe135       O147   2.123       .  S
Fe135       O136   2.072       .  S
Fe135       O144   1.942       .  S
O136        C143   1.267       .  A
O137        C151   1.279       .  A
O138        C143   1.268       .  A
O139        C142   1.267       .  A
O140        C152   1.275       .  A
O141        C154   1.266       .  A
C142        O147   1.284       .  A
C142       C1029   1.480       .  S
C143        C773   1.509       .  S
O145        C148   1.280       .  A
O146        C148   1.264       .  A
C148        C642   1.476       .  S
O149        C154   1.271       .  A
O150        C152   1.266       .  A
C151        O153   1.272       .  A
C151        C837   1.509       .  S
C152        C917   1.473       .  S
C154        C626   1.485       .  S
Fe155       O171   2.024       .  S
Fe155       O161   2.078       .  S
Fe155       O168   2.069       .  S
Fe155       O160   2.017       .  S
Fe155       O166   1.948       .  S
Fe156       O159   2.040       .  S
Fe156       O163   2.105       .  S
Fe156       O167   2.060       .  S
Fe156       O172   2.097       .  S
Fe156       O166   1.942       .  S
Fe157       O175   2.092       .  S
Fe157       O162   2.078       .  S
Fe157       O169   2.071       .  S
Fe157       O158   2.121       .  S
Fe157       O166   1.953       .  S
O158        C165   1.283       .  A
O159        C173   1.266       .  A
O160        C165   1.266       .  A
O161        C164   1.265       .  A
O162        C174   1.274       .  A
O163        C176   1.278       .  A
C164        O169   1.267       .  A
C164        C578   1.508       .  S
C165        C949   1.481       .  S
O167        C170   1.269       .  A
O168        C170   1.266       .  A
C170        C757   1.487       .  S
O171        C176   1.263       .  A
O172        C174   1.275       .  A
C173        O175   1.275       .  A
C173        C594   1.482       .  S
C174        C610   1.515   1_554  S
C176        C645   1.476       .  S
Fe177       O193   2.021       .  S
Fe177       O183   2.088       .  S
Fe177       O190   2.084       .  S
Fe177       O182   2.021       .  S
Fe177       O188   1.937       .  S
Fe178       O181   2.036       .  S
Fe178       O185   2.105       .  S
Fe178       O189   2.042       .  S
Fe178       O194   2.100       .  S
Fe178       O188   1.932       .  S
Fe179       O197   2.094       .  S
Fe179       O184   2.067       .  S
Fe179       O191   2.067       .  S
Fe179       O180   2.112       .  S
Fe179       O188   1.941       .  S
O180        C187   1.280       .  A
O181        C195   1.266       .  A
O182        C187   1.264       .  A
O183        C186   1.272       .  A
O184        C196   1.271       .  A
O185        C198   1.277       .  A
C186        O191   1.267       .  A
C186        C514   1.507       .  S
C187        C498   1.479       .  S
O189        C192   1.265       .  A
O190        C192   1.273       .  A
C192        C850   1.480       .  S
O193        C198   1.260       .  A
O194        C196   1.277       .  A
C195        O197   1.275       .  A
C195        C546   1.470       .  S
C196        C562   1.509       .  S
C198        C533   1.475       .  S
Fe199       O215   2.084       .  S
Fe199       O205   2.020       .  S
Fe199       O212   2.024       .  S
Fe199       O204   2.084       .  S
Fe199       O210   1.948       .  S
Fe200       O203   2.102       .  S
Fe200       O207   2.051       .  S
Fe200       O211   2.105       .  S
Fe200       O216   2.040       .  S
Fe200       O210   1.933       .  S
Fe201       O219   2.080       .  S
Fe201       O206   2.093       .  S
Fe201       O213   2.117       .  S
Fe201       O202   2.073       .  S
Fe201       O210   1.948       .  S
O202        C209   1.267       .  A
O203        C217   1.278       .  A
O204        C209   1.269       .  A
O205        C208   1.266       .  A
O206        C218   1.275       .  A
O207        C220   1.268       .  A
C208        O213   1.282       .  A
C208        C469   1.478       .  S
C209        C869   1.506       .  S
O211        C214   1.278       .  A
O212        C214   1.261       .  A
C214        C530   1.477       .  S
O215        C220   1.270       .  A
O216        C218   1.268       .  A
C217        O219   1.273       .  A
C217        C741   1.517   1_556  S
C218        C674   1.478       .  S
C220        C482   1.486       .  S
Fe221       O237   2.029       .  S
Fe221       O227   2.078       .  S
Fe221       O234   2.074       .  S
Fe221       O226   2.020       .  S
Fe221       O232   1.942       .  S
Fe222       O225   2.040       .  S
Fe222       O229   2.103       .  S
Fe222       O233   2.057       .  S
Fe222       O238   2.106       .  S
Fe222       O232   1.928       .  S
Fe223       O241   2.097       .  S
Fe223       O228   2.066       .  S
Fe223       O235   2.072       .  S
Fe223       O224   2.123       .  S
Fe223       O232   1.940       .  S
O224        C231   1.283       .  A
O225        C239   1.266       .  A
O226        C231   1.267       .  A
O227        C230   1.265       .  A
O228        C240   1.272       .  A
O229        C242   1.279       .  A
C230        O235   1.267       .  A
C230        C565   1.505       .  S
C231        C882   1.484       .  S
O233        C236   1.268       .  A
O234        C236   1.266       .  A
C236       C1090   1.485       .  S
O237        C242   1.266       .  A
O238        C240   1.280       .  A
C239        O241   1.275       .  A
C239        C629   1.478       .  S
C240        C581   1.509       .  S
C242        C453   1.480       .  S
Fe243       O259   2.075       .  S
Fe243       O249   2.020       .  S
Fe243       O256   2.028       .  S
Fe243       O248   2.082       .  S
Fe243       O254   1.946       .  S
Fe244       O247   2.092       .  S
Fe244       O251   2.053       .  S
Fe244       O255   2.099       .  S
Fe244       O260   2.039       .  S
Fe244       O254   1.939       .  S
Fe245       O263   2.068       .  S
Fe245       O250   2.083       .  S
Fe245       O257   2.107       .  S
Fe245       O246   2.072       .  S
Fe245       O254   1.947       .  S
O246        C253   1.266       .  A
O247        C261   1.274       .  A
O248        C253   1.268       .  A
O249        C252   1.267       .  A
O250        C262   1.274       .  A
O251        C264   1.267       .  A
C252        O257   1.280       .  A
C252        C805   1.478       .  S
C253       C1109   1.502       .  S
O255        C258   1.275       .  A
O256        C258   1.265       .  A
C258        C450   1.477       .  S
O259        C264   1.270       .  A
O260        C262   1.269       .  A
C261        O263   1.270       .  A
C261        C434   1.500       .  S
C262        C418   1.474       .  S
C264        C549   1.478       .  S
Fe265       O281   2.030       .  S
Fe265       O271   2.086       .  S
Fe265       O278   2.089       .  S
Fe265       O270   2.031       .  S
Fe265       O276   1.942       .  S
Fe266       O269   2.032       .  S
Fe266       O273   2.095       .  S
Fe266       O277   2.041       .  S
Fe266       O282   2.089       .  S
Fe266       O276   1.929       .  S
Fe267       O285   2.094       .  S
Fe267       O272   2.069       .  S
Fe267       O279   2.061       .  S
Fe267       O268   2.109       .  S
Fe267       O276   1.944       .  S
O268        C275   1.280       .  A
O269        C283   1.266       .  A
O270        C275   1.267       .  A
O271        C274   1.272       .  A
O272        C284   1.273       .  A
O273        C286   1.275       .  A
C274        O279   1.265       .  A
C274        C709   1.504       .  S
C275        C501   1.479       .  S
O277        C280   1.265       .  A
O278        C280   1.273       .  A
C280        C421   1.484       .  S
O281        C286   1.262       .  A
O282        C284   1.273       .  A
C283        O285   1.275       .  A
C283        C818   1.473       .  S
C284        C901   1.502       .  S
C286        C402   1.474       .  S
Fe287       O303   2.083       .  S
Fe287       O293   2.024       .  S
Fe287       O300   2.032       .  S
Fe287       O292   2.085       .  S
Fe287       O298   1.947       .  S
Fe288       O291   2.092       .  S
Fe288       O295   2.044       .  S
Fe288       O299   2.096       .  S
Fe288       O304   2.035       .  S
Fe288       O298   1.934       .  S
Fe289       O307   2.073       .  S
Fe289       O294   2.089       .  S
Fe289       O301   2.110       .  S
Fe289       O290   2.061       .  S
Fe289       O298   1.948       .  S
O290        C297   1.267       .  A
O291        C305   1.273       .  A
O292        C297   1.269       .  A
O293        C296   1.266       .  A
O294        C306   1.275       .  A
O295        C308   1.268       .  A
C296        O301   1.280       .  A
C296        C466   1.476       .  S
C297        C437   1.499       .  S
O299        C302   1.275       .  A
O300        C302   1.263       .  A
C302        C405   1.477       .  S
O303        C308   1.270       .  A
O304        C306   1.267       .  A
C305        O307   1.272       .  A
C305        C386   1.510   1_556  S
C306        C373   1.474       .  S
C308        C693   1.483       .  S
Fe309       O325   2.024       .  S
Fe309       O315   2.083       .  S
Fe309       O322   2.071   1_655  S
Fe309       O314   2.019   1_655  S
Fe309       O320   1.942       .  S
Fe310       O313   2.038       .  S
Fe310       O317   2.105       .  S
Fe310       O321   2.053   1_655  S
Fe310       O326   2.098       .  S
Fe310       O320   1.941       .  S
Fe311       O329   2.093       .  S
Fe311       O316   2.076       .  S
Fe311       O323   2.074       .  S
Fe311       O312   2.120       .  S
Fe311       O320   1.947       .  S
O312        C319   1.282       .  A
O313        C327   1.266       .  A
O314        C319   1.265   1_455  A
O315        C318   1.270       .  A
O316        C328   1.275       .  A
O317        C330   1.277       .  A
C318        O323   1.266       .  A
C318        C613   1.511       .  S
C319        C658   1.482       .  S
O321        C324   1.268       .  A
O322        C324   1.270       .  A
C324        C370   1.480       .  S
O325        C330   1.264       .  A
O326        C328   1.275       .  A
C327        O329   1.275       .  A
C327        C485   1.478       .  S
C328        C517   1.508       .  S
C330        C354   1.483   1_655  S
Fe331       O347   2.084   1_455  S
Fe331       O337   2.019       .  S
Fe331       O344   2.028       .  S
Fe331       O336   2.082       .  S
Fe331       O342   1.943       .  S
Fe332       O335   2.091       .  S
Fe332       O339   2.048   1_455  S
Fe332       O343   2.101       .  S
Fe332       O348   2.036       .  S
Fe332       O342   1.927       .  S
Fe333       O351   2.079       .  S
Fe333       O338   2.100       .  S
Fe333       O345   2.125       .  S
Fe333       O334   2.075       .  S
Fe333       O342   1.946       .  S
O334        C341   1.267       .  A
O335        C349   1.274       .  A
O336        C341   1.270       .  A
O337        C340   1.265       .  A
O338        C350   1.277       .  A
O339        C352   1.267       .  A
C340        O345   1.283       .  A
C340        C725   1.481       .  S
C341        C389   1.507       .  S
O343        C346   1.277       .  A
O344        C346   1.265       .  A
C346        C357   1.481       .  S
O347        C352   1.269       .  A
O348        C350   1.266       .  A
C349        O351   1.275       .  A
C349       C1045   1.509       .  S
C350        C965   1.477       .  S
C352        C597   1.489       .  S
C353        C354   1.407   1_655  A
C353        C358   1.399   1_556  A
C353        H360   1.084       .  S
C354        C355   1.415       .  A
C355        C356   1.402   1_556  A
C355        C362   1.507       .  S
C356        C357   1.407       .  A
C356        H361   1.085       .  S
C357        C358   1.415   1_455  A
C358        C359   1.509       .  S
C359        H363   1.111       .  S
C359        H364   1.107       .  S
C359        H365   1.110       .  S
C362        H366   1.110       .  S
C362        H367   1.106       .  S
C362        H368   1.109       .  S
C369        C370   1.409       .  A
C369        C374   1.401       .  A
C369        H376   1.084       .  S
C370        C371   1.412       .  A
C371        C372   1.400       .  A
C371        C378   1.507       .  S
C372        C373   1.406       .  A
C372        H377   1.085       .  S
C373        C374   1.411       .  A
C374        C375   1.508       .  S
C375        H379   1.111       .  S
C375        H380   1.111       .  S
C375        H381   1.110       .  S
C378        H382   1.110       .  S
C378        H383   1.109       .  S
C378        H384   1.111       .  S
C385        C386   1.410       .  A
C385        C390   1.411       .  A
C385        H392   1.083       .  S
C386        C387   1.424       .  A
C387        C388   1.410       .  A
C387        C394   1.509   1_554  S
C388        C389   1.408       .  A
C388        H393   1.083       .  S
C389        C390   1.421       .  A
C390        C391   1.508       .  S
C391        H395   1.111       .  S
C391        H396   1.110       .  S
C391        H397   1.110       .  S
C394        H398   1.109       .  S
C394        H399   1.110       .  S
C394        H400   1.111       .  S
C401        C402   1.403       .  A
C401        C406   1.400       .  A
C401        H408   1.085       .  S
C402        C403   1.416       .  A
C403        C404   1.401       .  A
C403        C410   1.511       .  S
C404        C405   1.405       .  A
C404        H409   1.084       .  S
C405        C406   1.417       .  A
C406        C407   1.511       .  S
C407        H411   1.111       .  S
C407        H412   1.111       .  S
C407        H413   1.109       .  S
C410        H414   1.109       .  S
C410        H415   1.111       .  S
C410        H416   1.111       .  S
C417        C418   1.402       .  A
C417        C422   1.398       .  A
C417        H424   1.085       .  S
C418        C419   1.411       .  A
C419        C420   1.403       .  A
C419        C426   1.508       .  S
C420        C421   1.410       .  A
C420        H425   1.084       .  S
C421        C422   1.417       .  A
C422        C423   1.507       .  S
C423        H427   1.111       .  S
C423        H428   1.107       .  S
C423        H429   1.110       .  S
C426        H430   1.110       .  S
C426        H431   1.110       .  S
C426        H432   1.111       .  S
C433        C434   1.409       .  A
C433        C438   1.412       .  A
C433        H440   1.084       .  S
C434        C435   1.420       .  A
C435        C436   1.406       .  A
C435        C442   1.510       .  S
C436        C437   1.407       .  A
C436        H441   1.084       .  S
C437        C438   1.418       .  A
C438        C439   1.507       .  S
C439        H443   1.111       .  S
C439        H444   1.110       .  S
C439        H445   1.109       .  S
C442        H446   1.110       .  S
C442        H447   1.111       .  S
C442        H448   1.111       .  S
C449        C450   1.407       .  A
C449        C454   1.399       .  A
C449        H456   1.084       .  S
C450        C451   1.411       .  A
C451        C452   1.401       .  A
C451        C458   1.508       .  S
C452        C453   1.410       .  A
C452        H457   1.084       .  S
C453        C454   1.413       .  A
C454        C455   1.509       .  S
C455        H459   1.111       .  S
C455        H460   1.110       .  S
C455        H461   1.109       .  S
C458        H462   1.110       .  S
C458        H463   1.110       .  S
C458        H464   1.111       .  S
C465        C466   1.398       .  A
C465        C470   1.401       .  A
C465        H472   1.084       .  S
C466        C467   1.418       .  A
C467        C468   1.402       .  A
C467        C474   1.507       .  S
C468        C469   1.399       .  A
C468        H473   1.084       .  S
C469        C470   1.420       .  A
C470        C471   1.507       .  S
C471        H475   1.110       .  S
C471        H476   1.110       .  S
C471        H477   1.111       .  S
C474        H478   1.110       .  S
C474        H479   1.111       .  S
C474        H480   1.110       .  S
C481        C482   1.404       .  A
C481        C486   1.401       .  A
C481        H488   1.084       .  S
C482        C483   1.423       .  A
C483        C484   1.405       .  A
C483        C490   1.508       .  S
C484        C485   1.400       .  A
C484        H489   1.084       .  S
C485        C486   1.416       .  A
C486        C487   1.510       .  S
C487        H491   1.111       .  S
C487        H492   1.108       .  S
C487        H493   1.111       .  S
C490        H494   1.107       .  S
C490        H495   1.110       .  S
C490        H496   1.111       .  S
C497        C498   1.400   1_455  A
C497        C502   1.402       .  A
C497        H504   1.084   1_455  S
C498        C499   1.419       .  A
C499        C500   1.401   1_655  A
C499        C506   1.507       .  S
C500        C501   1.400       .  A
C500        H505   1.084       .  S
C501        C502   1.418       .  A
C502        C503   1.506       .  S
C503        H507   1.110       .  S
C503        H508   1.110       .  S
C503        H509   1.110       .  S
C506        H510   1.111       .  S
C506        H511   1.110       .  S
C506        H512   1.110       .  S
C513        C514   1.409       .  A
C513        C518   1.414       .  A
C513        H520   1.084       .  S
C514        C515   1.423       .  A
C515        C516   1.408       .  A
C515        C522   1.509       .  S
C516        C517   1.407       .  A
C516        H521   1.083       .  S
C517        C518   1.422       .  A
C518        C519   1.508   1_655  S
C519        H523   1.111       .  S
C519        H524   1.111       .  S
C519        H525   1.109   1_455  S
C522        H526   1.110       .  S
C522        H527   1.109       .  S
C522        H528   1.111       .  S
C529        C530   1.403       .  A
C529        C534   1.400       .  A
C529        H536   1.084       .  S
C530        C531   1.419       .  A
C531        C532   1.402       .  A
C531        C538   1.511       .  S
C532        C533   1.403       .  A
C532        H537   1.084       .  S
C533        C534   1.417       .  A
C534        C535   1.512       .  S
C535        H539   1.111       .  S
C535        H540   1.109       .  S
C535        H541   1.111       .  S
C538        H542   1.111       .  S
C538        H543   1.109       .  S
C538        H544   1.110       .  S
C545        C546   1.405       .  A
C545        C550   1.402       .  A
C545        H552   1.085       .  S
C546        C547   1.409       .  A
C547        C548   1.400       .  A
C547        C554   1.509       .  S
C548        C549   1.409       .  A
C548        H553   1.084       .  S
C549        C550   1.412       .  A
C550        C551   1.508       .  S
C551        H555   1.111       .  S
C551        H556   1.110       .  S
C551        H557   1.108       .  S
C554        H558   1.110       .  S
C554        H559   1.111       .  S
C554        H560   1.111       .  S
C561        C562   1.409       .  A
C561        C566   1.410       .  A
C561        H568   1.083       .  S
C562        C563   1.423       .  A
C563        C564   1.409       .  A
C563        C570   1.509       .  S
C564        C565   1.407       .  A
C564        H569   1.084       .  S
C565        C566   1.423       .  A
C566        C567   1.509       .  S
C567        H571   1.111       .  S
C567        H572   1.109       .  S
C567        H573   1.110       .  S
C570        H574   1.110       .  S
C570        H575   1.110       .  S
C570        H576   1.111       .  S
C577        C578   1.408       .  A
C577        C582   1.408       .  A
C577        H584   1.083       .  S
C578        C579   1.422       .  A
C579        C580   1.413       .  A
C579        C586   1.508       .  S
C580        C581   1.409       .  A
C580        H585   1.083       .  S
C581        C582   1.424       .  A
C582        C583   1.510       .  S
C583        H587   1.111       .  S
C583        H588   1.110       .  S
C583        H589   1.110       .  S
C586        H590   1.110       .  S
C586        H591   1.110       .  S
C586        H592   1.111       .  S
C593        C594   1.402       .  A
C593        C598   1.407       .  A
C593        H600   1.084       .  S
C594        C595   1.418       .  A
C595        C596   1.399       .  A
C595        C602   1.510       .  S
C596        C597   1.404       .  A
C596        H601   1.084       .  S
C597        C598   1.422       .  A
C598        C599   1.509       .  S
C599        H603   1.111       .  S
C599        H604   1.109       .  S
C599        H605   1.110       .  S
C602        H606   1.108       .  S
C602        H607   1.110       .  S
C602        H608   1.111       .  S
C609        C610   1.411       .  A
C609        C614   1.412       .  A
C609        H616   1.083       .  S
C610        C611   1.424       .  A
C611        C612   1.412       .  A
C611        C618   1.509   1_556  S
C612        C613   1.409       .  A
C612        H617   1.083       .  S
C613        C614   1.423       .  A
C614        C615   1.509       .  S
C615        H619   1.111       .  S
C615        H620   1.110       .  S
C615        H621   1.110       .  S
C618        H622   1.110       .  S
C618        H623   1.110       .  S
C618        H624   1.111   1_554  S
C625        C626   1.410       .  A
C625        C630   1.405       .  A
C625        H632   1.084       .  S
C626        C627   1.415       .  A
C627        C628   1.403       .  A
C627        C634   1.509       .  S
C628        C629   1.405       .  A
C628        H633   1.084       .  S
C629        C630   1.411       .  A
C630        C631   1.508       .  S
C631        H635   1.111       .  S
C631        H636   1.110       .  S
C631        H637   1.110       .  S
C634        H638   1.110       .  S
C634        H639   1.109       .  S
C634        H640   1.111       .  S
C641        C642   1.401       .  A
C641        C646   1.400       .  A
C641        H648   1.084       .  S
C642        C643   1.417       .  A
C643        C644   1.402       .  A
C643        C650   1.509       .  S
C644        C645   1.403       .  A
C644        H649   1.084       .  S
C645        C646   1.418       .  A
C646        C647   1.510       .  S
C647        H651   1.110       .  S
C647        H652   1.109       .  S
C647        H653   1.109       .  S
C650        H654   1.111       .  S
C650        H655   1.106       .  S
C650        H656   1.111       .  S
C657        C658   1.411   1_455  A
C657        C662   1.405       .  A
C657        H664   1.084       .  S
C658        C659   1.411       .  A
C659        C660   1.403       .  A
C659        C666   1.507       .  S
C660        C661   1.409   1_655  A
C660        H665   1.085       .  S
C661        C662   1.409       .  A
C662        C663   1.506       .  S
C663        H667   1.111       .  S
C663        H668   1.110       .  S
C663        H669   1.110       .  S
C666        H670   1.110       .  S
C666        H671   1.110       .  S
C666        H672   1.111       .  S
C673        C674   1.405       .  A
C673        C678   1.400   1_565  A
C673        H680   1.085       .  S
C674        C675   1.412   1_565  A
C675        C676   1.405       .  A
C675        C682   1.507       .  S
C676        C677   1.409       .  A
C676        H681   1.084       .  S
C677        C678   1.413       .  A
C678        C679   1.507       .  S
C679        H683   1.111       .  S
C679        H684   1.110   1_545  S
C679        H685   1.109       .  S
C682        H686   1.111   1_545  S
C682        H687   1.110       .  S
C682        H688   1.111       .  S
C689        C690   1.400       .  A
C689        C694   1.403       .  A
C689        H696   1.084       .  S
C690        C691   1.416       .  A
C691        C692   1.399       .  A
C691        C698   1.511       .  S
C692        C693   1.404       .  A
C692        H697   1.084       .  S
C693        C694   1.422       .  A
C694        C695   1.509       .  S
C695        H699   1.111       .  S
C695        H700   1.108       .  S
C695        H701   1.110       .  S
C698        H702   1.109       .  S
C698        H703   1.110       .  S
C698        H704   1.111       .  S
C705        C706   1.405   1_545  A
C705        C710   1.407   1_545  A
C705        H712   1.084       .  S
C706        C707   1.423       .  A
C707        C708   1.412       .  A
C707        C714   1.508       .  S
C708        C709   1.407       .  A
C708        H713   1.084       .  S
C709        C710   1.424       .  A
C710        C711   1.509   1_565  S
C711        H715   1.111       .  S
C711        H716   1.110       .  S
C711        H717   1.109   1_545  S
C714        H718   1.110   1_455  S
C714        H719   1.109       .  S
C714        H720   1.111       .  S
C721        C722   1.399       .  A
C721        C726   1.403       .  A
C721        H728   1.084       .  S
C722        C723   1.420   1_655  A
C723        C724   1.403       .  A
C723        C730   1.507       .  S
C724        C725   1.399       .  A
C724        H729   1.084       .  S
C725        C726   1.420   1_455  A
C726        C727   1.506       .  S
C727        H731   1.110       .  S
C727        H732   1.110       .  S
C727        H733   1.111       .  S
C730        H734   1.110       .  S
C730        H735   1.110       .  S
C730        H736   1.110       .  S
C737        C738   1.410       .  A
C737        C742   1.414       .  A
C737        H744   1.083       .  S
C738        C739   1.424       .  A
C739        C740   1.413       .  A
C739        C746   1.509       .  S
C740        C741   1.410       .  A
C740        H745   1.083   1_554  S
C741        C742   1.424       .  A
C742        C743   1.508       .  S
C743        H747   1.111       .  S
C743        H748   1.110       .  S
C743        H749   1.110       .  S
C746        H750   1.110       .  S
C746        H751   1.109       .  S
C746        H752   1.111       .  S
C753        C754   1.397       .  A
C753        C758   1.403       .  A
C753        H760   1.084       .  S
C754        C755   1.416       .  A
C755        C756   1.402       .  A
C755        C762   1.510       .  S
C756        C757   1.403       .  A
C756        H761   1.084       .  S
C757        C758   1.425       .  A
C758        C759   1.509       .  S
C759        H763   1.111       .  S
C759        H764   1.110       .  S
C759        H765   1.108       .  S
C762        H766   1.111       .  S
C762        H767   1.108       .  S
C762        H768   1.111       .  S
C769        C770   1.411       .  A
C769        C774   1.411       .  A
C769        H776   1.083       .  S
C770        C771   1.422       .  A
C771        C772   1.411       .  A
C771        C778   1.508   1_545  S
C772        C773   1.410       .  A
C772        H777   1.083       .  S
C773        C774   1.422       .  A
C774        C775   1.509       .  S
C775        H779   1.111       .  S
C775        H780   1.110       .  S
C775        H781   1.109       .  S
C778        H782   1.110       .  S
C778        H783   1.110       .  S
C778        H784   1.111       .  S
C785        C786   1.406       .  A
C785        C790   1.395   1_556  A
C785        H792   1.084       .  S
C786        C787   1.416   1_445  A
C787        C788   1.399   1_556  A
C787        C794   1.509       .  S
C788        C789   1.406   1_565  A
C788        H793   1.085       .  S
C789        C790   1.414   1_655  A
C790        C791   1.509       .  S
C791        H795   1.111       .  S
C791        H796   1.106       .  S
C791        H797   1.110       .  S
C794        H798   1.110       .  S
C794        H799   1.108       .  S
C794        H800   1.111       .  S
C801        C802   1.409       .  A
C801        C806   1.403       .  A
C801        H808   1.084       .  S
C802        C803   1.409       .  A
C803        C804   1.401       .  A
C803        C810   1.507       .  S
C804        C805   1.409       .  A
C804        H809   1.085       .  S
C805        C806   1.409       .  A
C806        C807   1.506       .  S
C807        H811   1.111       .  S
C807        H812   1.110       .  S
C807        H813   1.110       .  S
C810        H814   1.110       .  S
C810        H815   1.110       .  S
C810        H816   1.111       .  S
C817        C818   1.405       .  A
C817        C822   1.400   1_565  A
C817        H824   1.085       .  S
C818        C819   1.409   1_565  A
C819        C820   1.403       .  A
C819        C826   1.508       .  S
C820        C821   1.410       .  A
C820        H825   1.084       .  S
C821        C822   1.413       .  A
C822        C823   1.508       .  S
C823        H827   1.111   1_545  S
C823        H828   1.110       .  S
C823        H829   1.108   1_545  S
C826        H830   1.110       .  S
C826        H831   1.110   1_545  S
C826        H832   1.111       .  S
C833        C834   1.408       .  A
C833        C838   1.408       .  A
C833        H840   1.084       .  S
C834        C835   1.422       .  A
C835        C836   1.415       .  A
C835        C842   1.507       .  S
C836        C837   1.409       .  A
C836        H841   1.084       .  S
C837        C838   1.422       .  A
C838        C839   1.509       .  S
C839        H843   1.111       .  S
C839        H844   1.110       .  S
C839        H845   1.111       .  S
C842        H846   1.111       .  S
C842        H847   1.109       .  S
C842        H848   1.111       .  S
C849        C850   1.409       .  A
C849        C854   1.401       .  A
C849        H856   1.084       .  S
C850        C851   1.416       .  A
C851        C852   1.400       .  A
C851        C858   1.509       .  S
C852        C853   1.404       .  A
C852        H857   1.085       .  S
C853        C854   1.410       .  A
C854        C855   1.508       .  S
C855        H859   1.111       .  S
C855        H860   1.110       .  S
C855        H861   1.110       .  S
C858        H862   1.109       .  S
C858        H863   1.110       .  S
C858        H864   1.111       .  S
C865        C866   1.406   1_545  A
C865        C870   1.407   1_545  A
C865        H872   1.084       .  S
C866        C867   1.421       .  A
C867        C868   1.416       .  A
C867        C874   1.506       .  S
C868        C869   1.410       .  A
C868        H873   1.084       .  S
C869        C870   1.422       .  A
C870        C871   1.509       .  S
C871        H875   1.111   1_565  S
C871        H876   1.109       .  S
C871        H877   1.110   1_565  S
C874        H878   1.109       .  S
C874        H879   1.110       .  S
C874        H880   1.111       .  S
C881        C882   1.410       .  A
C881        C886   1.403       .  A
C881        H888   1.085       .  S
C882        C883   1.411       .  A
C883        C884   1.404       .  A
C883        C890   1.506       .  S
C884        C885   1.409       .  A
C884        H889   1.085       .  S
C885        C886   1.410       .  A
C886        C887   1.507       .  S
C887        H891   1.111       .  S
C887        H892   1.110       .  S
C887        H893   1.110       .  S
C890        H894   1.110       .  S
C890        H895   1.110       .  S
C890        H896   1.111       .  S
C897        C898   1.407       .  A
C897        C902   1.408       .  A
C897        H904   1.084       .  S
C898        C899   1.424       .  A
C899        C900   1.407       .  A
C899        C906   1.510       .  S
C900        C901   1.406       .  A
C900        H905   1.084       .  S
C901        C902   1.421       .  A
C902        C903   1.506       .  S
C903        H907   1.111       .  S
C903        H908   1.108       .  S
C903        H909   1.109       .  S
C906        H910   1.110       .  S
C906        H911   1.110       .  S
C906        H912   1.111       .  S
C913        C914   1.409   1_565  A
C913        C918   1.403   1_565  A
C913        H920   1.084       .  S
C914        C915   1.413       .  A
C915        C916   1.402       .  A
C915        C922   1.508       .  S
C916        C917   1.405       .  A
C916        H921   1.085       .  S
C917        C918   1.409       .  A
C918        C919   1.508       .  S
C919        H923   1.111       .  S
C919        H924   1.110       .  S
C919        H925   1.110       .  S
C922        H926   1.111       .  S
C922        H927   1.109       .  S
C922        H928   1.110   1_545  S
C929        C930   1.404       .  A
C929        C934   1.401       .  A
C929        H936   1.084       .  S
C930        C931   1.419   1_545  A
C931        C932   1.403       .  A
C931        C938   1.511       .  S
C932        C933   1.404   1_565  A
C932        H937   1.084       .  S
C933        C934   1.419       .  A
C934        C935   1.511       .  S
C935        H939   1.110       .  S
C935        H940   1.111       .  S
C935        H941   1.109       .  S
C938        H942   1.109       .  S
C938        H943   1.111       .  S
C938        H944   1.110       .  S
C945        C946   1.411       .  A
C945        C950   1.404       .  A
C945        H952   1.084       .  S
C946        C947   1.411       .  A
C947        C948   1.404       .  A
C947        C954   1.507       .  S
C948        C949   1.410       .  A
C948        H953   1.085       .  S
C949        C950   1.409       .  A
C950        C951   1.507       .  S
C951        H955   1.111       .  S
C951        H956   1.110       .  S
C951        H957   1.110       .  S
C954        H958   1.110       .  S
C954        H959   1.110       .  S
C954        H960   1.111       .  S
C961        C962   1.403       .  A
C961        C966   1.402       .  A
C961        H968   1.084       .  S
C962        C963   1.425       .  A
C963        C964   1.405       .  A
C963        C970   1.509       .  S
C964        C965   1.399       .  A
C964        H969   1.084       .  S
C965        C966   1.415       .  A
C966        C967   1.509       .  S
C967        H971   1.111       .  S
C967        H972   1.111       .  S
C967        H973   1.108       .  S
C970        H974   1.110       .  S
C970        H975   1.106       .  S
C970        H976   1.111       .  S
C977        C978   1.409       .  A
C977        C982   1.410       .  A
C977        H984   1.083       .  S
C978        C979   1.422       .  A
C979        C980   1.411       .  A
C979        C986   1.509       .  S
C980        C981   1.411       .  A
C980        H985   1.083   1_545  S
C981        C982   1.423       .  A
C982        C983   1.509       .  S
C983        H987   1.111       .  S
C983        H988   1.110       .  S
C983        H989   1.110       .  S
C986        H990   1.110       .  S
C986        H991   1.110       .  S
C986        H992   1.111   1_545  S
C993        C994   1.405       .  A
C993        C998   1.403       .  A
C993       H1000   1.085       .  S
C994        C995   1.410       .  A
C995        C996   1.405   1_545  A
C995       C1002   1.507       .  S
C996        C997   1.411       .  A
C996       H1001   1.084       .  S
C997        C998   1.414   1_565  A
C998        C999   1.508       .  S
C999       H1003   1.111       .  S
C999       H1004   1.110   1_545  S
C999       H1005   1.108       .  S
C1002      H1006   1.110       .  S
C1002      H1007   1.111       .  S
C1002      H1008   1.111   1_545  S
C1009      C1010   1.407       .  A
C1009      C1014   1.412       .  A
C1009      H1016   1.084       .  S
C1010      C1011   1.424       .  A
C1011      C1012   1.412       .  A
C1011      C1018   1.509       .  S
C1012      C1013   1.408       .  A
C1012      H1017   1.084       .  S
C1013      C1014   1.423       .  A
C1014      C1015   1.508       .  S
C1015      H1019   1.111       .  S
C1015      H1020   1.111   1_556  S
C1015      H1021   1.109   1_556  S
C1018      H1022   1.109       .  S
C1018      H1023   1.111       .  S
C1018      H1024   1.110       .  S
C1025      C1026   1.399       .  A
C1025      C1030   1.403   1_455  A
C1025      H1032   1.084       .  S
C1026      C1027   1.421       .  A
C1027      C1028   1.402       .  A
C1027      C1034   1.508       .  S
C1028      C1029   1.399   1_455  A
C1028      H1033   1.084       .  S
C1029      C1030   1.420       .  A
C1030      C1031   1.507       .  S
C1031      H1035   1.110       .  S
C1031      H1036   1.110       .  S
C1031      H1037   1.111       .  S
C1034      H1038   1.110       .  S
C1034      H1039   1.110       .  S
C1034      H1040   1.111       .  S
C1041      C1042   1.408       .  A
C1041      C1046   1.410       .  A
C1041      H1048   1.084       .  S
C1042      C1043   1.424       .  A
C1043      C1044   1.411       .  A
C1043      C1050   1.509       .  S
C1044      C1045   1.408       .  A
C1044      H1049   1.083       .  S
C1045      C1046   1.423       .  A
C1046      C1047   1.509       .  S
C1047      H1051   1.111       .  S
C1047      H1052   1.110       .  S
C1047      H1053   1.111       .  S
C1050      H1054   1.110       .  S
C1050      H1055   1.110       .  S
C1050      H1056   1.111       .  S
C1057      C1058   1.409       .  A
C1057      C1062   1.403       .  A
C1057      H1064   1.084       .  S
C1058      C1059   1.412       .  A
C1059      C1060   1.400       .  A
C1059      C1066   1.507       .  S
C1060      C1061   1.406       .  A
C1060      H1065   1.085       .  S
C1061      C1062   1.411       .  A
C1062      C1063   1.507       .  S
C1063      H1067   1.111       .  S
C1063      H1068   1.110       .  S
C1063      H1069   1.111       .  S
C1066      H1070   1.109       .  S
C1066      H1071   1.110       .  S
C1066      H1072   1.111       .  S
C1073      C1074   1.409       .  A
C1073      C1078   1.402       .  A
C1073      H1080   1.084       .  S
C1074      C1075   1.418       .  A
C1075      C1076   1.398       .  A
C1075      C1082   1.511       .  S
C1076      C1077   1.408       .  A
C1076      H1081   1.084       .  S
C1077      C1078   1.417       .  A
C1078      C1079   1.509       .  S
C1079      H1083   1.111       .  S
C1079      H1084   1.110       .  S
C1079      H1085   1.110       .  S
C1082      H1086   1.110       .  S
C1082      H1087   1.109       .  S
C1082      H1088   1.111       .  S
C1089      C1090   1.403       .  A
C1089      C1094   1.401       .  A
C1089      H1096   1.084       .  S
C1090      C1091   1.424       .  A
C1091      C1092   1.404       .  A
C1091      C1098   1.509       .  S
C1092      C1093   1.399       .  A
C1092      H1097   1.084       .  S
C1093      C1094   1.415       .  A
C1094      C1095   1.510       .  S
C1095      H1099   1.111       .  S
C1095      H1100   1.110       .  S
C1095      H1101   1.108       .  S
C1098      H1102   1.110       .  S
C1098      H1103   1.108       .  S
C1098      H1104   1.111       .  S
C1105      C1106   1.405       .  A
C1105      C1110   1.408       .  A
C1105      H1112   1.084       .  S
C1106      C1107   1.419       .  A
C1107      C1108   1.413       .  A
C1107      C1114   1.507       .  S
C1108      C1109   1.408       .  A
C1108      H1113   1.084       .  S
C1109      C1110   1.422       .  A
C1110      C1111   1.510       .  S
C1111      H1115   1.111       .  S
C1111      H1116   1.110       .  S
C1111      H1117   1.110       .  S
C1114      H1118   1.109       .  S
C1114      H1119   1.110       .  S
C1114      H1120   1.111       .  S
