geometry optimzed in LAMMPS
_audit_creation_date              2020-12-01 
_audit_creation_method            'lammps2cif' 
_symmetry_space_group_name_H-M    'P1' 
_symmetry_Int_Tables_number       1 
_symmetry_cell_setting            triclinic 
loop_ 
_symmetry_equiv_pos_as_xyz 
  x,y,z 
_cell_length_a                    37.36714832 
_cell_length_b                    37.30175091096653 
_cell_length_c                    49.848800598934695 
_cell_angle_alpha                 90.05686443024348 
_cell_angle_beta                  90.23466920706962 
_cell_angle_gamma                 89.9170934290361 
loop_ 
_atom_site_label 
_atom_site_type_symbol 
_atom_site_fract_x 
_atom_site_fract_y 
_atom_site_fract_z 
_atom_site_charge 
O1          O  0.89220444  0.18675557  0.91640252    -0.85700
O2          O  0.93989073  0.23721790  0.93215547    -0.82800
C3          C  0.94797821  0.22366970  0.95462223     0.97700
O4          O  0.96760466  0.19622562  0.95569709    -0.82800
O5          O  0.99849334  0.13183843  0.94080840    -0.85400
C6          C  0.97367287  0.10885376  0.94216198     1.02300
O7          O  0.94751715  0.11088532  0.92634770    -0.78200
O8          O  0.89754234  0.13778307  0.89275922    -0.78400
C9          C  0.88099631  0.15605060  0.91024635     1.02200
O10         O  0.91452492  0.19351414  0.86129938    -0.85700
O11         O  0.96902932  0.23974750  0.87946588    -0.82800
C12         C  0.99640949  0.24962773  0.89252997     0.97800
O13         O  0.00660924  0.23273723  0.91333414    -0.82800
O14         O  0.03190378  0.16702015  0.89667857    -0.85400
C15         C  0.03169346  0.13556539  0.88735197     1.02200
O16         O  0.00284267  0.11768157  0.88682674    -0.78200
O17         O  0.95334325  0.15078673  0.85351108    -0.78400
C18         C  0.92946159  0.17189605  0.84520460     1.02200
Cr19       Cr  0.93107854  0.21161946  0.89748398     1.93700
Cr20       Cr  0.99826272  0.18170124  0.92510189     1.93200
Cr21       Cr  0.95116662  0.13259670  0.89062426     1.39100
O22         O  0.96062065  0.17540571  0.90404834    -1.23500
O23         O  0.84763663  0.13145184  0.60942403    -0.85700
O24         O  0.80200897  0.09894824  0.57473616    -0.82800
C25         C  0.78758449  0.07554473  0.56017854     0.97700
O26         O  0.79065909  0.04283392  0.56611014    -0.82800
O27         O  0.86273825  0.03105904  0.55697747    -0.85400
C28         C  0.89609055  0.03256597  0.56074878     1.02300
O29         O  0.90907310  0.03420990  0.58413835    -0.78200
O30         O  0.89624191  0.10383835  0.59600226    -0.78400
C31         C  0.87747049  0.13181736  0.59741033     1.02200
O32         O  0.82065680  0.08714519  0.65247795    -0.85700
O33         O  0.77098186  0.05647030  0.61778970    -0.82800
C34         C  0.76967040  0.02269759  0.62115652     0.97800
O35         O  0.79621244  0.00348691  0.61485351    -0.82800
O36         O  0.86560831  0.98394964  0.60240271    -0.85400
C37         C  0.88226228  0.98426612  0.62454650     1.02200
O38         O  0.88699762  0.01352329  0.63679300    -0.76600
O39         O  0.87937175  0.08527301  0.65021797    -0.78400
C40         C  0.85100742  0.09024690  0.66338622     1.02200
Cr41       Cr  0.81273260  0.09060568  0.61316426     1.93700
Cr42       Cr  0.82995149  0.01829329  0.58664347     1.93200
Cr43       Cr  0.88920299  0.05906428  0.61620127     1.39100
O44         O  0.84386993  0.05597748  0.60573691    -1.23500
O45         O  0.08366683  0.90237563  0.09021989    -0.85700
O46         O  0.01157978  0.91364661  0.08792809    -0.82800
C47         C  0.00498608  0.89986006  0.06534810     0.97700
O48         O  0.00652540  0.86639338  0.06214541    -0.82800
O49         O  0.02539336  0.79550889  0.07010736    -0.85400
C50         C  0.05739399  0.79400535  0.06189609     1.02300
O51         O  0.08204489  0.80879459  0.07509144    -0.78200
O52         O  0.11630644  0.85831094  0.10563994    -0.78400
C53         C  0.11290651  0.88549193  0.09054368     1.02200
O54         O  0.07949297  0.88932253  0.14701144    -0.85700
O55         O  0.00468761  0.89354054  0.14240096    -0.82800
C56         C  0.97355871  0.88677895  0.13369153     0.97800
O57         O  0.96921796  0.86729387  0.11302125    -0.82800
O58         O  0.99384014  0.79879753  0.12260794    -0.85400
C59         C  0.01537910  0.77337918  0.12684508     1.02200
O60         O  0.04839897  0.77685691  0.12132542    -0.78200
O61         O  0.07961767  0.83113437  0.15291004    -0.78400
C62         C  0.08660765  0.86228508  0.16141679     1.02200
Cr63       Cr  0.04484357  0.89597683  0.11648387     1.93700
Cr64       Cr  0.00177807  0.83330524  0.09319571     1.93200
Cr65       Cr  0.07858186  0.82091788  0.11361736     1.39100
O66         O  0.04150726  0.84982226  0.10820503    -1.23500
O67         O  0.11505170  0.94062629  0.41700034    -0.85700
O68         O  0.10015760  0.01268608  0.41859112    -0.82800
C69         C  0.10956116  0.01734942  0.44249934     0.97700
O70         O  0.14224140  0.01559533  0.44865760    -0.82800
O71         O  0.21463744  0.99946867  0.44488901    -0.85400
C72         C  0.22098711  0.96668527  0.44929390     1.02300
O73         O  0.21032276  0.94277622  0.43328569    -0.78200
O74         O  0.16077850  0.91055655  0.40126064    -0.78400
C75         C  0.13309812  0.91206844  0.41602857     1.02200
O76         O  0.13001341  0.94677136  0.36146496    -0.85700
O77         O  0.12578753  0.02170818  0.36677255    -0.82800
C78         C  0.13138779  0.05267326  0.37637602     0.97800
O79         O  0.14723872  0.05657017  0.39884930    -0.82800
O80         O  0.21730387  0.03630580  0.39504709    -0.85400
C81         C  0.24255583  0.01599485  0.38805862     1.02200
O82         O  0.23940423  0.98215076  0.38881481    -0.78200
O83         O  0.18723065  0.95205730  0.35533481    -0.78400
C84         C  0.15652510  0.94484619  0.34610930     1.02200
Cr85       Cr  0.12148741  0.98056276  0.39163428     1.93700
Cr86       Cr  0.17926408  0.02381922  0.42044912     1.93200
Cr87       Cr  0.19709000  0.94977184  0.39498004     1.39100
O88         O  0.16656948  0.98499358  0.40215582    -1.23500
O89         O  0.35157815  0.90244919  0.89736171    -0.85700
O90         O  0.30356563  0.93363796  0.93106920    -0.82800
C91         C  0.28927229  0.95683202  0.94587947     0.97700
O92         O  0.29291315  0.98976818  0.94026058    -0.82800
O93         O  0.36506787  0.00833076  0.94548334    -0.85400
C94         C  0.39782281  0.01140787  0.93985445     1.02300
O95         O  0.40854824  0.00546063  0.91636103    -0.78200
O96         O  0.39760591  0.93357156  0.91149670    -0.78400
C97         C  0.38088848  0.90432179  0.91034989     1.02200
O98         O  0.32068276  0.94376668  0.85309617    -0.85700
O99         O  0.26960704  0.97172056  0.88760421    -0.82800
C100        C  0.26606368  0.00527676  0.88414010     0.97800
O101        O  0.29137516  0.02627823  0.88974327    -0.82800
O102        O  0.36027048  0.04949907  0.89666875    -0.85400
C103        C  0.37712631  0.04756971  0.87461199     1.02200
O104        O  0.38254269  0.01724533  0.86395476    -0.78200
O105        O  0.37908811  0.94269598  0.85627492    -0.78400
C106        C  0.35086573  0.93803229  0.84279905     1.02200
Cr107      Cr  0.31367344  0.94081337  0.89256148     1.93700
Cr108      Cr  0.32853466  0.01536936  0.91667826     1.93200
Cr109      Cr  0.38818545  0.97472855  0.88770319     1.39100
O110        O  0.34318322  0.97708262  0.89879946    -1.23500
O111        O  0.39726331  0.84447008  0.58893997    -0.85700
O112        O  0.44347514  0.79090980  0.57568925    -0.82800
C113        C  0.45210779  0.80320186  0.55299906     0.97700
O114        O  0.47236168  0.83004898  0.55136340    -0.82800
O115        O  0.50793460  0.89269561  0.56563888    -0.85400
C116        C  0.48539240  0.91800750  0.56464522     1.02300
O117        O  0.45779988  0.91692421  0.57867638    -0.78200
O118        O  0.40478004  0.89494171  0.61043180    -0.78400
C119        C  0.38743924  0.87625294  0.59350839     1.02200
O120        O  0.41740460  0.83957193  0.64439723    -0.85700
O121        O  0.47105623  0.79071822  0.62928448    -0.82800
C122        C  0.49761507  0.77808418  0.61676414     0.97800
O123        O  0.50826723  0.79237403  0.59509068    -0.82800
O124        O  0.53726520  0.85649246  0.61087110    -0.85400
C125        C  0.53920523  0.88818599  0.61943581     1.02200
O126        O  0.51138126  0.90785131  0.62002922    -0.78200
O127        O  0.45774533  0.88047693  0.65219870    -0.78400
C128        C  0.43181242  0.86195090  0.66016767     1.02200
Cr129      Cr  0.43460122  0.81885195  0.60937447     1.93700
Cr130      Cr  0.50350088  0.84342648  0.58210947     1.93200
Cr131      Cr  0.45863739  0.89672217  0.61469292     1.39100
O132        O  0.46594971  0.85302483  0.60240051    -1.23500
O133        O  0.63701603  0.11814761  0.10984179    -0.85700
O134        O  0.61154014  0.06717149  0.07623150    -0.82800
C135        C  0.60995550  0.04009901  0.06134384     0.97700
O136        O  0.63109667  0.01408150  0.06522458    -0.82800
O137        O  0.69818511  0.04148222  0.05455155    -0.85400
C138        C  0.72632437  0.05981194  0.05701540     1.02300
O139        O  0.73827708  0.06704891  0.08019833    -0.78200
O140        O  0.68954791  0.11900083  0.09106654    -0.78400
C141        C  0.65908489  0.13286983  0.09399550     1.02200
O142        O  0.64087533  0.06426232  0.15194200    -0.85700
O143        O  0.61019174  0.01430686  0.11814517    -0.82800
C144        C  0.62631075  0.98439730  0.12009559     0.97800
O145        O  0.65850022  0.98143662  0.11273002    -0.82800
O146        O  0.72738816  0.00272328  0.09974082    -0.85400
C147        C  0.74189637  0.01118527  0.12188926     1.02200
O148        O  0.73174555  0.03942675  0.13388876    -0.78200
O149        O  0.68743239  0.09864180  0.14707122    -0.78400
C150        C  0.66237597  0.08680189  0.16165244     1.02200
Cr151      Cr  0.62828061  0.06489606  0.11352679     1.93700
Cr152      Cr  0.67851839  0.01286615  0.08453002     1.93200
Cr153      Cr  0.70897485  0.07902463  0.11277855     1.39100
O154        O  0.67185956  0.05189027  0.10399325    -1.23500
O155        O  0.59335018  0.13304853  0.41588075    -0.85700
O156        O  0.52262513  0.11651322  0.42265028    -0.82800
C157        C  0.51759593  0.12935131  0.44566559     0.97700
O158        O  0.51784175  0.16271290  0.44946820    -0.82800
O159        O  0.52880974  0.23496243  0.44050751    -0.85400
C160        C  0.56140971  0.24020242  0.44602812     1.02300
O161        O  0.58536217  0.22785174  0.43095924    -0.78200
O162        O  0.61990532  0.18033813  0.39897463    -0.78400
C163        C  0.62063989  0.15273824  0.41381823     1.02200
O164        O  0.58068579  0.14498333  0.36032081    -0.85700
O165        O  0.50726572  0.13601156  0.36936666    -0.82800
C166        C  0.47700241  0.14094596  0.38010259     0.97800
O167        O  0.47419258  0.15881495  0.40163110    -0.82800
O168        O  0.49147024  0.22779383  0.39043219    -0.85400
C169        C  0.50953268  0.25468441  0.38362954     1.02200
O170        O  0.54334738  0.25457514  0.38640942    -0.78200
O171        O  0.57617827  0.20267072  0.35356496    -0.78400
C172        C  0.58397609  0.17169854  0.34502240     1.02200
Cr173      Cr  0.55072449  0.13636409  0.39251427     1.93700
Cr174      Cr  0.50623512  0.19509579  0.41909861     1.93200
Cr175      Cr  0.57837550  0.21397468  0.39287977     1.39100
O176        O  0.54496278  0.18207082  0.40116271    -1.23500
O177        O  0.61711241  0.35765392  0.89751250    -0.85700
O178        O  0.58913573  0.30674304  0.93019935    -0.82800
C179        C  0.56699413  0.29111706  0.94509476     0.97700
O180        O  0.53402396  0.29229655  0.93941171    -0.82800
O181        O  0.51602768  0.36310304  0.94977384    -0.85400
C182        C  0.51321788  0.39652598  0.94661599     1.02300
O183        O  0.51496306  0.41023787  0.92353384    -0.78200
O184        O  0.58577279  0.40266762  0.91337835    -0.78400
C185        C  0.61505498  0.38615931  0.91130012     1.02200
O186        O  0.57597268  0.33015898  0.85291948    -0.85700
O187        O  0.54908189  0.27558792  0.88533152    -0.82800
C188        C  0.51546999  0.27249608  0.88179140     0.97800
O189        O  0.49428777  0.29633247  0.89019877    -0.82800
O190        O  0.46973137  0.36373325  0.90364178    -0.85400
C191        C  0.46887939  0.38127123  0.88190573     1.02200
O192        O  0.49787375  0.38848044  0.87007960    -0.78200
O193        O  0.57071770  0.38836644  0.85790526    -0.78400
C194        C  0.57807758  0.36151127  0.84349404     1.02200
Cr195      Cr  0.57968786  0.31962741  0.89207480     1.93700
Cr196      Cr  0.50647905  0.33018350  0.91922378     1.93200
Cr197      Cr  0.54250314  0.39365767  0.89167444     1.39100
O198        O  0.54287255  0.34762472  0.90061431    -1.23500
O199        O  0.68499879  0.41198160  0.59096223    -0.85700
O200        O  0.73818712  0.45956431  0.57963348    -0.82800
C201        C  0.72648491  0.46931702  0.55693504     0.97700
O202        O  0.69863478  0.48829499  0.55536890    -0.82800
O203        O  0.63411513  0.52100452  0.56881223    -0.85400
C204        C  0.60919776  0.49808804  0.56729066     1.02300
O205        O  0.61026668  0.47047233  0.58152161    -0.78200
O206        O  0.63456911  0.41693278  0.61251067    -0.78400
C207        C  0.65328275  0.40161445  0.59459932     1.02200
O208        O  0.68864008  0.42968302  0.64749104    -0.85700
O209        O  0.73669421  0.48499632  0.63362093    -0.82800
C210        C  0.74789397  0.51305058  0.62209113     0.97800
O211        O  0.73316545  0.52432727  0.60065357    -0.82800
O212        O  0.66793229  0.55038208  0.61531597    -0.85400
C213        C  0.63613855  0.55131611  0.62343845     1.02200
O214        O  0.61746081  0.52284035  0.62351993    -0.78200
O215        O  0.64706368  0.46947534  0.65548530    -0.78400
C216        C  0.66711354  0.44462774  0.66364620     1.02200
Cr217      Cr  0.70945909  0.44871619  0.61273977     1.93700
Cr218      Cr  0.68298998  0.51795630  0.58635223     1.93200
Cr219      Cr  0.63074663  0.47064505  0.61770953     1.39100
O220        O  0.67437923  0.47952835  0.60592430    -1.23500
O221        O  0.37732421  0.62073487  0.40016797    -0.85700
O222        O  0.39657172  0.56691133  0.43431227    -0.82800
C223        C  0.39640928  0.53796192  0.44718812     0.97700
O224        O  0.37464079  0.51345273  0.44097250    -0.82800
O225        O  0.30862375  0.54426328  0.45137223    -0.85400
C226        C  0.28138290  0.56404161  0.44884686     1.02300
O227        O  0.27206694  0.57542416  0.42589363    -0.78200
O228        O  0.32326324  0.62509944  0.41640849    -0.78400
C229        C  0.35457092  0.63715277  0.41429718     1.02200
O230        O  0.37333622  0.56924059  0.35731503    -0.85700
O231        O  0.39837541  0.51656804  0.39065127    -0.82800
C232        C  0.38068548  0.48823526  0.38605364     0.97800
O233        O  0.34772063  0.48676829  0.39145119    -0.82800
O234        O  0.27959095  0.51028626  0.40459705    -0.85400
C235        C  0.26549421  0.52166478  0.38308151     1.02200
O236        O  0.27805097  0.54930462  0.37181509    -0.78200
O237        O  0.32722993  0.60518105  0.36037124    -0.78400
C238        C  0.35391054  0.59333258  0.34732128     1.02200
Cr239      Cr  0.38288193  0.56753807  0.39604250     1.93700
Cr240      Cr  0.32819594  0.51679800  0.42073734     1.93200
Cr241      Cr  0.30286655  0.58647055  0.39396335     1.39100
O242        O  0.33792363  0.55677644  0.40322461    -1.23500
O243        O  0.39711027  0.63954549  0.11258252    -0.85700
O244        O  0.44512937  0.61334193  0.07735021    -0.82800
C245        C  0.47163669  0.61094876  0.06208531     0.97700
O246        O  0.49694348  0.63334292  0.06399227    -0.82800
O247        O  0.46862853  0.70078540  0.05213142    -0.85400
C248        C  0.45065221  0.72931896  0.05465414     1.02300
O249        O  0.44285974  0.74036499  0.07790881    -0.78200
O250        O  0.39300097  0.69027502  0.09145565    -0.78400
C251        C  0.38112148  0.65922925  0.09580779     1.02200
O252        O  0.45369825  0.64643087  0.15177425    -0.85700
O253        O  0.50069287  0.61435807  0.11713106    -0.82800
C254        C  0.53027627  0.63079904  0.11764344     0.97800
O255        O  0.53210248  0.66294340  0.10977442    -0.82800
O256        O  0.50898433  0.73110298  0.09601336    -0.85400
C257        C  0.49963074  0.74805949  0.11697908     1.02200
O258        O  0.47284824  0.73758539  0.13036793    -0.78200
O259        O  0.41678814  0.69149595  0.14711439    -0.78400
C260        C  0.43018695  0.66668947  0.16146294     1.02200
Cr261      Cr  0.45009131  0.63181169  0.11401957     1.93700
Cr262      Cr  0.49879866  0.68172422  0.08201884     1.93200
Cr263      Cr  0.43336264  0.71208654  0.11142783     1.39100
O264        O  0.46121032  0.67528407  0.10282075    -1.23500
O265        O  0.18107309  0.62024723  0.91750352    -0.85700
O266        O  0.23443612  0.57279849  0.92731569    -0.82800
C267        C  0.22331231  0.56266035  0.95000666     0.97700
O268        O  0.19647886  0.54239134  0.95150579    -0.82800
O269        O  0.13254058  0.50915633  0.93811652    -0.85400
C270        C  0.10805580  0.53220444  0.94137702     1.02300
O271        O  0.10784574  0.56030844  0.92769926    -0.78200
O272        O  0.12917046  0.61585084  0.89766719    -0.78400
C273        C  0.14945482  0.63119896  0.91476852     1.02200
O274        O  0.18233683  0.60421188  0.86087557    -0.85700
O275        O  0.23156483  0.54891777  0.87279409    -0.82800
C276        C  0.24453132  0.52143686  0.88413404     0.97800
O277        O  0.23065925  0.50912333  0.90544859    -0.82800
O278        O  0.16481339  0.48230448  0.89067835    -0.85400
C279        C  0.13235143  0.48151465  0.88367860     1.02200
O280        O  0.11340177  0.50985932  0.88460436    -0.78200
O281        O  0.13997281  0.56520436  0.85307503    -0.78400
C282        C  0.15970542  0.59022964  0.84502263     1.02200
Cr283      Cr  0.20474462  0.58429514  0.89477354     1.93700
Cr284      Cr  0.18057384  0.51380479  0.92011895     1.93200
Cr285      Cr  0.12608073  0.56207029  0.89116372     1.39100
O286        O  0.17042039  0.55299864  0.90162874    -1.23500
O287        O  0.12220798  0.67221726  0.60998622    -0.85700
O288        O  0.09399319  0.71815255  0.57332487    -0.82800
C289        C  0.07158547  0.73044874  0.55682048     0.97700
O290        O  0.03854425  0.72827855  0.56164787    -0.82800
O291        O  0.02208961  0.65609057  0.55784886    -0.85400
C292        C  0.01888093  0.62353672  0.56413188     1.02300
O293        O  0.02077578  0.61397279  0.58832404    -0.78200
O294        O  0.09162422  0.62495744  0.59734709    -0.78400
C295        C  0.12044169  0.64246072  0.59773711     1.02200
O296        O  0.07955287  0.70564139  0.65160351    -0.85700
O297        O  0.05283384  0.75423041  0.61437875    -0.82800
C298        C  0.01915845  0.75774950  0.61641271     0.97800
O299        O  0.99836264  0.73244904  0.61010343    -0.82800
O300        O  0.97545592  0.66299337  0.60317378    -0.85400
C301        C  0.97439888  0.64909364  0.62630713     1.02200
O302        O  0.00328315  0.64348791  0.63905042    -0.78200
O303        O  0.07648993  0.64695871  0.65130490    -0.78400
C304        C  0.08201955  0.67599199  0.66360673     1.02200
Cr305      Cr  0.08408559  0.71020203  0.61193900     1.93700
Cr306      Cr  0.01155892  0.69391495  0.58483768     1.93200
Cr307      Cr  0.04829354  0.63602893  0.61826388     1.39100
O308        O  0.04788852  0.68039756  0.60537637    -1.23500
O309        O  0.89791659  0.38719363  0.39622136    -0.85700
O310        O  0.94893194  0.40953948  0.43122615    -0.82800
C311        C  0.97696186  0.41127924  0.44513793     0.97700
O312        O  0.00243395  0.38974463  0.44062822    -0.82800
O313        O  0.97513231  0.32210796  0.45164472    -0.85400
C314        C  0.95632122  0.29412720  0.44935808     1.02300
O315        O  0.94537261  0.28443019  0.42639321    -0.78200
O316        O  0.89529870  0.33566412  0.41625889    -0.78400
C317        C  0.88291816  0.36673188  0.41297815     1.02200
O318        O  0.95168812  0.38289428  0.35512632    -0.85700
O319        O  0.00154670  0.41238414  0.38951516    -0.82800
C320        C  0.03064523  0.39555960  0.38603298     0.97800
O321        O  0.03293151  0.36271964  0.39208348    -0.82800
O322        O  0.01082216  0.29377100  0.40532819    -0.85400
C323        C  0.99945473  0.27877235  0.38410809     1.02200
O324        O  0.97144341  0.29003158  0.37248260    -0.78200
O325        O  0.91531965  0.33739268  0.35966022    -0.78400
C326        C  0.92873749  0.36197780  0.34522538     1.02200
Cr327      Cr  0.95097347  0.39465458  0.39354464     1.93700
Cr328      Cr  0.00240382  0.34250080  0.42102347     1.93200
Cr329      Cr  0.93387003  0.31459870  0.39400785     1.39100
O330        O  0.96282762  0.35043587  0.40247838    -1.23500
O331        O  0.89109818  0.42946072  0.08947997    -0.85700
O332        O  0.90734334  0.50073388  0.08494598    -0.82800
C333        C  0.89715971  0.50204549  0.06093600     0.97700
O334        O  0.86412987  0.50216148  0.05594566    -0.82800
O335        O  0.79181163  0.49127926  0.06195108    -0.85400
C336        C  0.78407717  0.45874050  0.05802723     1.02300
O337        O  0.79487541  0.43480707  0.07390039    -0.78200
O338        O  0.84410526  0.40149898  0.10569825    -0.78400
C339        C  0.87148131  0.40200895  0.09063496     1.02200
O340        O  0.87735876  0.43924703  0.14494104    -0.85700
O341        O  0.88458149  0.51388271  0.13742319    -0.82800
C342        C  0.88018838  0.54436679  0.12659817     0.97800
O343        O  0.86401483  0.54706485  0.10418688    -0.82800
O344        O  0.79393544  0.52959955  0.11145846    -0.85400
C345        C  0.76722408  0.51107624  0.11796447     1.02200
O346        O  0.76856271  0.47705555  0.11748729    -0.78200
O347        O  0.81993142  0.44526906  0.15088180    -0.78400
C348        C  0.85035857  0.43672451  0.15986249     1.02200
Cr349      Cr  0.88645827  0.47098642  0.11368373     1.93700
Cr350      Cr  0.82944437  0.51456797  0.08482209     1.93200
Cr351      Cr  0.80939523  0.44244552  0.11166540     1.39100
O352        O  0.84119998  0.47618905  0.10370719    -1.23500
C353        C  0.84502515  0.41974044  0.23544115    -0.11800
C354        C  0.87459728  0.39685047  0.23906174     0.14800
C355        C  0.89380489  0.38515386  0.21639212     0.01700
C356        C  0.88387556  0.39732518  0.19094196    -0.16100
C357        C  0.85569922  0.42196777  0.18728082    -0.10900
C358        C  0.83566604  0.43278593  0.20991469     0.08400
C359        C  0.88686230  0.38800816  0.26664864     0.09400
S360        S  0.93220743  0.35588599  0.21860441    -0.25200
H361        H  0.89924510  0.38827110  0.17382125     0.19700
S362        S  0.79970018  0.46488590  0.20793039    -0.30900
H363        H  0.83023365  0.42887338  0.25281464     0.10000
C364        C  0.90398371  0.41406522  0.28260836     0.03200
C365        C  0.91767399  0.40448329  0.30780998    -0.13200
C366        C  0.91532954  0.36911385  0.31752669    -0.08900
C367        C  0.89890229  0.34281373  0.30107934     0.06700
C368        C  0.88437296  0.35265856  0.27611211    -0.14000
S369        S  0.90960233  0.45938749  0.27049417    -0.30900
H370        H  0.93005365  0.42493296  0.32013737     0.10900
S371        S  0.89743027  0.29604611  0.30994518    -0.28000
H372        H  0.87209806  0.33236912  0.26352873     0.08100
H373        H  0.81810516  0.48847121  0.19084750     0.26600
H374        H  0.93001518  0.47216630  0.29224852     0.21400
H375        H  0.93233694  0.29537034  0.32064810     0.26700
H376        H  0.94601480  0.37041222  0.24252269     0.15500
C377        C  0.01320531  0.47487768  0.49858901    -0.11800
C378        C  0.99100719  0.50465770  0.49432624     0.14800
C379        C  0.96317779  0.50277172  0.47532772     0.01700
C380        C  0.95819182  0.47122496  0.46085378    -0.16100
C381        C  0.98105385  0.44148524  0.46423468    -0.10900
C382        C  0.00861292  0.44320080  0.48378352     0.08400
C383        C  0.99643914  0.53667418  0.51105765     0.09400
S384        S  0.93328176  0.53971136  0.46844731    -0.25200
H385        H  0.93696851  0.47061801  0.44599135     0.19700
S386        S  0.03730936  0.40527137  0.49089022    -0.30900
H387        H  0.03395405  0.47652550  0.51375757     0.10000
C388        C  0.97484723  0.54305838  0.53359073     0.03200
C389        C  0.98210159  0.57268882  0.54985949    -0.13200
C390        C  0.01058377  0.59593755  0.54410681    -0.08900
C391        C  0.03195131  0.58971525  0.52128152     0.06700
C392        C  0.02440759  0.56024173  0.50483899    -0.14000
S393        S  0.93894151  0.51276476  0.54216172    -0.30900
H394        H  0.96599131  0.57744939  0.56753042     0.10900
S395        S  0.07040022  0.61664657  0.51301841    -0.28000
H396        H  0.04103924  0.55499642  0.48751058     0.08100
H397        H  0.06027089  0.42270003  0.50912123     0.26600
H398        H  0.92755542  0.53093549  0.56536033     0.21400
H399        H  0.08094694  0.62365426  0.53960272     0.26700
H400        H  0.95793983  0.56714053  0.47407030     0.15500
C401        C  0.02321828  0.54480448  0.98153574    -0.11800
C402        C  0.01259003  0.50931148  0.98526012     0.14800
C403        C  0.03420280  0.48110667  0.97559661     0.01700
C404        C  0.06638469  0.48919342  0.96269500    -0.16100
C405        C  0.07724575  0.52492990  0.95899486    -0.10900
C406        C  0.05533111  0.55292603  0.96893949     0.08400
C407        C  0.98227337  0.50328389  0.00333818     0.09400
S408        S  0.02230666  0.43451043  0.97929841    -0.25200
H409        H  0.08240017  0.46743077  0.95471038     0.19700
S410        S  0.06704047  0.59960324  0.96723647    -0.30900
H411        H  0.00706743  0.56639500  0.98967558     0.10000
C412        C  0.98879782  0.49529246  0.03040205     0.03200
C413        C  0.96023622  0.49448008  0.04817732    -0.13200
C414        C  0.92507468  0.50285226  0.03991595    -0.08900
C415        C  0.91866987  0.51110224  0.01259573     0.06700
C416        C  0.94734550  0.51083995  0.99455526    -0.14000
S417        S  0.03388106  0.48823952  0.04275381    -0.30900
H418        H  0.96572113  0.48771560  0.06888704     0.10900
S419        S  0.87541427  0.52383186  0.99969850    -0.28000
H420        H  0.94272014  0.51801291  0.97376557     0.08100
H421        H  0.10367331  0.59399834  0.97219253     0.26600
H422        H  0.02538429  0.48576592  0.07015094     0.21400
H423        H  0.86930534  0.54939210  0.01996403     0.26700
H424        H  0.98523888  0.43992722  0.98181238     0.15500
C425        C  0.08264065  0.64877246  0.73645843    -0.11800
C426        C  0.11912210  0.65199793  0.74279237     0.14800
C427        C  0.14237218  0.66788743  0.72389599     0.01700
C428        C  0.12884199  0.67898634  0.69890563    -0.16100
C429        C  0.09270218  0.67394115  0.69212180    -0.10900
C430        C  0.06923424  0.65973695  0.71149056     0.08400
C431        C  0.13205561  0.63687324  0.76867157     0.09400
S432        S  0.18975878  0.67306966  0.72980558    -0.25200
H433        H  0.14712021  0.68935667  0.68399166     0.19700
S434        S  0.02205888  0.65400350  0.70509183    -0.30900
H435        H  0.06457757  0.63699307  0.75092512     0.10000
C436        C  0.14093661  0.65880542  0.79074732     0.03200
C437        C  0.15190643  0.64290399  0.81502264    -0.13200
C438        C  0.15379629  0.60541406  0.81782256    -0.08900
C439        C  0.14589760  0.58362123  0.79532572     0.06700
C440        C  0.13479634  0.59951302  0.77121500    -0.14000
S441        S  0.13645684  0.70690158  0.78841758    -0.30900
H442        H  0.15743150  0.65968283  0.83228288     0.10900
S443        S  0.15015937  0.53547038  0.79588124    -0.28000
H444        H  0.12839249  0.58259686  0.75417176     0.08100
H445        H  0.01905260  0.68253535  0.68677375     0.26600
H446        H  0.14978166  0.71480480  0.81418166     0.21400
H447        H  0.17857862  0.53463227  0.81447373     0.26700
H448        H  0.19400558  0.64323784  0.74670551     0.15500
C449        C  0.60111798  0.55810717  0.12671560    -0.11800
C450        C  0.62998967  0.57812364  0.13656803     0.14800
C451        C  0.62478700  0.61473357  0.14276566     0.01700
C452        C  0.59177206  0.63101945  0.13718543    -0.16100
C453        C  0.56334800  0.61147263  0.12586236    -0.10900
C454        C  0.56812826  0.57422409  0.12115561     0.08400
C455        C  0.66629066  0.56217218  0.13461501     0.09400
S456        S  0.65971089  0.64227421  0.15694282    -0.25200
H457        H  0.58848061  0.65936424  0.14130235     0.19700
S458        S  0.53499004  0.54640035  0.10511233    -0.30900
H459        H  0.60513491  0.53022886  0.12132402     0.10000
C460        C  0.67649513  0.53100861  0.14873539     0.03200
C461        C  0.70986526  0.51501525  0.14343552    -0.13200
C462        C  0.73324056  0.52970605  0.12435998    -0.08900
C463        C  0.72278586  0.56107799  0.11029500     0.06700
C464        C  0.68963424  0.57683243  0.11570579    -0.14000
S465        S  0.64719037  0.51187722  0.17359490    -0.30900
H466        H  0.71776214  0.49095971  0.15407226     0.10900
S467        S  0.74959435  0.57972237  0.08352715    -0.28000
H468        H  0.68102861  0.60003666  0.10433035     0.08100
H469        H  0.53168727  0.56955374  0.08302121     0.26600
H470        H  0.66940303  0.48286250  0.18062050     0.21400
H471        H  0.72869338  0.61046392  0.07874454     0.26700
H472        H  0.67863025  0.61399954  0.16915791     0.15500
C473        C  0.31387050  0.59607365  0.06240451    -0.11800
C474        C  0.30364776  0.61668858  0.04022129     0.14800
C475        C  0.31528935  0.65252435  0.03832380     0.01700
C476        C  0.33845324  0.66628712  0.05783940    -0.16100
C477        C  0.35051494  0.64526617  0.07954918    -0.10900
C478        C  0.33674762  0.60992537  0.08218682     0.08400
C479        C  0.28331285  0.59943825  0.01827255     0.09400
S480        S  0.30367346  0.68140832  0.01054479    -0.25200
H481        H  0.34835612  0.69330775  0.05521028     0.19700
S482        S  0.34777188  0.58044086  0.10959512    -0.30900
H483        H  0.30464633  0.56862265  0.06395568     0.10000
C484        C  0.30082694  0.58715899  0.99506073     0.03200
C485        C  0.28048214  0.57471085  0.97333762    -0.13200
C486        C  0.24294576  0.57385495  0.97439879    -0.08900
C487        C  0.22552716  0.58490832  0.99819350     0.06700
C488        C  0.24595064  0.59721447  0.01995731    -0.14000
S489        S  0.34911439  0.58762081  0.99306344    -0.30900
H490        H  0.29386413  0.56573568  0.95533834     0.10900
S491        S  0.17751741  0.58629777  0.00150374    -0.28000
H492        H  0.23257656  0.60667864  0.03787589     0.08100
H493        H  0.34241557  0.60700107  0.12925348     0.26600
H494        H  0.35179074  0.57080899  0.96787019     0.21400
H495        H  0.17101550  0.59859791  0.97528518     0.26700
H496        H  0.27097920  0.66502321  0.00400741     0.15500
C497        C  0.20433733  0.59038308  0.49457008    -0.11800
C498        C  0.22238558  0.59653049  0.51883952     0.14800
C499        C  0.25968710  0.59080901  0.52026951     0.01700
C500        C  0.27814300  0.57984814  0.49723904    -0.16100
C501        C  0.26013566  0.57386538  0.47279999    -0.10900
C502        C  0.22257364  0.57869359  0.47172732     0.08400
C503        C  0.20092587  0.60832292  0.54213129     0.09400
S504        S  0.28537344  0.59760059  0.55057204    -0.25200
H505        H  0.30689336  0.57632899  0.49835861     0.19700
S506        S  0.19598889  0.56896625  0.44232063    -0.30900
H507        H  0.17561067  0.59424014  0.49355432     0.10000
C508        C  0.19737398  0.64481323  0.54885008     0.03200
C509        C  0.17291358  0.65501403  0.56878287    -0.13200
C510        C  0.15137581  0.62946730  0.58178221    -0.08900
C511        C  0.15645310  0.59267620  0.57586791     0.06700
C512        C  0.18112120  0.58260445  0.55609829    -0.14000
S513        S  0.22230675  0.67846927  0.53081634    -0.30900
H514        H  0.16896539  0.68321497  0.57303666     0.10900
S515        S  0.13185088  0.55822180  0.59334738    -0.28000
H516        H  0.18445426  0.55459607  0.55091330     0.08100
H517        H  0.21524706  0.53791720  0.43530148     0.26600
H518        H  0.20732218  0.70847584  0.54371120     0.21400
H519        H  0.14328330  0.52913474  0.57756134     0.26700
H520        H  0.25757151  0.59081687  0.56874171     0.15500
C521        C  0.12049449  0.42114103  0.35536069    -0.11800
C522        C  0.12883054  0.45211614  0.37025209     0.14800
C523        C  0.10300629  0.46594711  0.38816770     0.01700
C524        C  0.07035143  0.44810264  0.39139814    -0.16100
C525        C  0.06298297  0.41584879  0.37788662    -0.10900
C526        C  0.08797355  0.40291180  0.35900067     0.08400
C527        C  0.16544036  0.46782202  0.36852872     0.09400
S528        S  0.11082779  0.50498972  0.40877818    -0.25200
H529        H  0.05139166  0.45836096  0.40592550     0.19700
S530        S  0.07972358  0.36366430  0.33881020    -0.30900
H531        H  0.13986928  0.41062005  0.34127299     0.10000
C532        C  0.19520880  0.44932142  0.37912822     0.03200
C533        C  0.22834117  0.46674638  0.38110561    -0.13200
C534        C  0.23273564  0.50272653  0.37321037    -0.08900
C535        C  0.20340909  0.52035072  0.36079216     0.06700
C536        C  0.17018351  0.50282006  0.35872121    -0.14000
S537        S  0.19036004  0.40466616  0.39272136    -0.30900
H538        H  0.25058510  0.45280420  0.39040945     0.10900
S539        S  0.20557561  0.56607299  0.34949737    -0.28000
H540        H  0.14742663  0.51710271  0.35041260     0.08100
H541        H  0.04231749  0.36786776  0.33782301     0.26600
H542        H  0.22663714  0.39900045  0.39906343     0.21400
H543        H  0.23589622  0.55997632  0.33346758     0.26700
H544        H  0.14720190  0.49792855  0.41384575     0.15500
C545        C  0.40760695  0.62235555  0.28615048    -0.11800
C546        C  0.38078668  0.63540550  0.26908591     0.14800
C547        C  0.34496509  0.63603582  0.27821243     0.01700
C548        C  0.33694812  0.62301771  0.30397674    -0.16100
C549        C  0.36374787  0.60883385  0.32080578    -0.10900
C550        C  0.39976812  0.60976231  0.31183983     0.08400
C551        C  0.39137640  0.64490123  0.24131280     0.09400
S552        S  0.30805153  0.65226564  0.25810615    -0.25200
H553        H  0.30937520  0.62302654  0.31061064     0.19700
S554        S  0.43750066  0.59672789  0.33232555    -0.30900
H555        H  0.43512451  0.62207733  0.27933863     0.10000
C556        C  0.39592203  0.68060258  0.23264035     0.03200
C557        C  0.40789496  0.68736293  0.20630966    -0.13200
C558        C  0.41631384  0.65901637  0.18878037    -0.08900
C559        C  0.41143402  0.62326380  0.19778559     0.06700
C560        C  0.39936849  0.61677874  0.22378020    -0.14000
S561        S  0.38765280  0.71731135  0.25538881    -0.30900
H562        H  0.41157203  0.71468859  0.19957808     0.10900
S563        S  0.41900953  0.58433641  0.17707083    -0.28000
H564        H  0.39602584  0.58933834  0.23046092     0.08100
H565        H  0.42492830  0.61424162  0.35546239     0.26600
H566        H  0.39897050  0.74477103  0.23807403     0.21400
H567        H  0.40268451  0.59913773  0.15425414     0.26700
H568        H  0.32452425  0.65049147  0.23290206     0.15500
C569        C  0.46653454  0.55255064  0.50098145    -0.11800
C570        C  0.48620478  0.52060566  0.49886768     0.14800
C571        C  0.47382038  0.49298993  0.48181022     0.01700
C572        C  0.44300932  0.49859156  0.46637731    -0.16100
C573        C  0.42432557  0.53121912  0.46748054    -0.10900
C574        C  0.43541632  0.55785824  0.48576541     0.08400
C575        C  0.51799443  0.51584971  0.51614745     0.09400
S576        S  0.49584407  0.45005140  0.47876748    -0.25200
H577        H  0.43439453  0.47781419  0.45257295     0.19700
S578        S  0.40991188  0.59819669  0.49131695    -0.30900
H579        H  0.47519434  0.57319440  0.51488057     0.10000
C580        C  0.55217958  0.52747906  0.50817864     0.03200
C581        C  0.58166574  0.52165125  0.52520172    -0.13200
C582        C  0.57750396  0.50422930  0.54995445    -0.08900
C583        C  0.54278653  0.49342606  0.55810255     0.06700
C584        C  0.51359125  0.49915053  0.54096447    -0.14000
S585        S  0.55819327  0.54899870  0.47609815    -0.30900
H586        H  0.60806690  0.53023127  0.51910520     0.10900
S587        S  0.53461594  0.47426059  0.59087685    -0.28000
H588        H  0.48702747  0.49082855  0.54688483     0.08100
H589        H  0.37634540  0.58323611  0.48510772     0.26600
H590        H  0.59569627  0.55171451  0.47752657     0.21400
H591        H  0.49739870  0.46985645  0.58817007     0.26700
H592        H  0.53037991  0.46124681  0.48606377     0.15500
C593        C  0.80121941  0.45021237  0.50758327    -0.11800
C594        C  0.78315791  0.43019693  0.48793037     0.14800
C595        C  0.74579267  0.42531626  0.49015162     0.01700
C596        C  0.72763603  0.43942256  0.51239765    -0.16100
C597        C  0.74594538  0.45862975  0.53242810    -0.10900
C598        C  0.78303869  0.46478158  0.52953284     0.08400
C599        C  0.80467066  0.41320122  0.46639269     0.09400
S600        S  0.72000374  0.40085695  0.46559065    -0.25200
H601        H  0.69917724  0.43458003  0.51444701     0.19700
S602        S  0.80861335  0.49143697  0.55288806    -0.30900
H603        H  0.82983729  0.45431202  0.50587038     0.10000
C604        C  0.82034942  0.43368086  0.44590995     0.03200
C605        C  0.84390616  0.41722470  0.42781422    -0.13200
C606        C  0.85272755  0.38053054  0.42979470    -0.08900
C607        C  0.83539354  0.35964797  0.44977548     0.06700
C608        C  0.81165361  0.37634553  0.46772425    -0.14000
S609        S  0.81075917  0.48102257  0.44311793    -0.30900
H610        H  0.85659403  0.43354527  0.41266677     0.10900
S611        S  0.84355150  0.31205557  0.45354434    -0.28000
H612        H  0.79927009  0.36092582  0.48355061     0.08100
H613        H  0.78054849  0.51500554  0.55933369     0.26600
H614        H  0.83229422  0.48765958  0.42059044     0.21400
H615        H  0.81945407  0.30585215  0.47463654     0.26700
H616        H  0.74228065  0.40822755  0.44363221     0.15500
C617        C  0.84450535  0.53754041  0.63660898    -0.11800
C618        C  0.84151211  0.57402802  0.64354505     0.14800
C619        C  0.80674704  0.58892987  0.64626054     0.01700
C620        C  0.77658294  0.56826373  0.63978252    -0.16100
C621        C  0.77984894  0.53218195  0.63228759    -0.10900
C622        C  0.81408809  0.51631198  0.63170723     0.08400
C623        C  0.87464756  0.59669624  0.64379464     0.09400
S624        S  0.79890698  0.63412814  0.65777850    -0.25200
H625        H  0.75025928  0.58046227  0.64054956     0.19700
S626        S  0.81930002  0.46961227  0.62292262    -0.30900
H627        H  0.87082967  0.52601369  0.63386628     0.10000
C628        C  0.90597968  0.58729551  0.65828705     0.03200
C629        C  0.93803886  0.60637530  0.65392513    -0.13200
C630        C  0.93919926  0.63564959  0.63616715    -0.08900
C631        C  0.90663029  0.64755042  0.62447155     0.06700
C632        C  0.87556102  0.62716590  0.62733796    -0.14000
S633        S  0.90531209  0.55112760  0.68235188    -0.30900
H634        H  0.96254099  0.59747848  0.66349509     0.10900
S635        S  0.90259296  0.68865135  0.60562779    -0.28000
H636        H  0.85183384  0.63507945  0.61625887     0.08100
H637        H  0.85674617  0.46819541  0.62573063     0.26600
H638        H  0.94127974  0.55393174  0.69050975     0.21400
H639        H  0.92783114  0.70739774  0.62128249     0.26700
H640        H  0.83048027  0.63661765  0.67312084     0.15500
C641        C  0.52545447  0.46479443  0.00145305    -0.11800
C642        C  0.49144660  0.48082591  0.00135597     0.14800
C643        C  0.46382732  0.46586045  0.98551396     0.01700
C644        C  0.47100095  0.43566137  0.96985217    -0.16100
C645        C  0.50531965  0.42048534  0.96911572    -0.10900
C646        C  0.53272320  0.43478278  0.98547357     0.08400
C647        C  0.48600130  0.51402816  0.01695611     0.09400
S648        S  0.41955581  0.48512935  0.98307462    -0.25200
H649        H  0.45021795  0.42530439  0.95672515     0.19700
S650        S  0.57808241  0.41808410  0.98505710    -0.30900
H651        H  0.54670868  0.47636032  0.01351995     0.10000
C652        C  0.46474755  0.51447560  0.04016210     0.03200
C653        C  0.45918492  0.54692762  0.05361257    -0.13200
C654        C  0.47473032  0.57906848  0.04454481    -0.08900
C655        C  0.49560082  0.57849855  0.02096027     0.06700
C656        C  0.50133710  0.54595620  0.00764688    -0.14000
S657        S  0.44591718  0.47351302  0.05326790    -0.30900
H658        H  0.44377610  0.54693183  0.07196166     0.10900
S659        S  0.51454092  0.61829991  0.00631503    -0.28000
H660        H  0.51724367  0.54559381  0.98950769     0.08100
H661        H  0.56964164  0.38266960  0.97789379     0.26600
H662        H  0.42567413  0.48942231  0.07383307     0.21400
H663        H  0.48547140  0.64060127  0.01293769     0.26700
H664        H  0.42976731  0.52098134  0.98708078     0.15500
C665        C  0.58893955  0.40107225  0.77377241    -0.11800
C666        C  0.62404899  0.39068848  0.76744451     0.14800
C667        C  0.64293295  0.36843815  0.78565199     0.01700
C668        C  0.62620377  0.35680251  0.80931784    -0.16100
C669        C  0.59138376  0.36792983  0.81588738    -0.10900
C670        C  0.57250335  0.38996556  0.79760807     0.08400
C671        C  0.63962460  0.40340434  0.74159708     0.09400
S672        S  0.68893741  0.35546291  0.78060471    -0.25200
H673        H  0.64128193  0.34069060  0.82349045     0.19700
S674        S  0.52720652  0.40457280  0.80354570    -0.30900
H675        H  0.57412841  0.41792310  0.75992748     0.10000
C676        C  0.64514492  0.38000834  0.71970726     0.03200
C677        C  0.65684007  0.39386362  0.69497289    -0.13200
C678        C  0.66249919  0.43079955  0.69139374    -0.08900
C679        C  0.65845540  0.45391983  0.71368847     0.06700
C680        C  0.64683918  0.44009490  0.73835192    -0.14000
S681        S  0.63462758  0.33292986  0.72261221    -0.30900
H682        H  0.65949970  0.37615279  0.67787193     0.10900
S683        S  0.66773517  0.50129527  0.71190110    -0.28000
H684        H  0.64300201  0.45817604  0.75512972     0.08100
H685        H  0.51697098  0.37368517  0.81772962     0.26600
H686        H  0.64416376  0.32317637  0.69633075     0.21400
H687        H  0.69394754  0.49858246  0.69181126     0.26700
H688        H  0.69884378  0.38579647  0.76568952     0.15500
C689        C  0.71268924  0.41508503  0.01442814    -0.11800
C690        C  0.72133648  0.42838057  0.98894970     0.14800
C691        C  0.75035258  0.45240196  0.98640902     0.01700
C692        C  0.76985744  0.46256401  0.00929936    -0.16100
C693        C  0.76158342  0.44866143  0.03470826    -0.10900
C694        C  0.73228685  0.42497820  0.03721275     0.08400
C695        C  0.69806701  0.41811291  0.96596141     0.09400
S696        S  0.76430124  0.47036860  0.95455480    -0.25200
H697        H  0.79228553  0.48070217  0.00715936     0.19700
S698        S  0.71733630  0.40788432  0.06906134    -0.30900
H699        H  0.68993187  0.39736659  0.01664580     0.10000
C700        C  0.69514065  0.38214648  0.95747445     0.03200
C701        C  0.66953567  0.37288997  0.93800503    -0.13200
C702        C  0.64659230  0.39881058  0.92680378    -0.08900
C703        C  0.65139767  0.43522579  0.93401218     0.06700
C704        C  0.67662308  0.44435429  0.95371781    -0.14000
S705        S  0.72357051  0.34785363  0.97180433    -0.30900
H706        H  0.66611444  0.34500486  0.93255007     0.10900
S707        S  0.62623382  0.47127971  0.91892538    -0.28000
H708        H  0.67908939  0.47208333  0.95995001     0.08100
H709        H  0.72380783  0.43985589  0.08323219     0.26600
H710        H  0.70889789  0.31869566  0.95764768     0.21400
H711        H  0.62345832  0.45489437  0.89355661     0.26700
H712        H  0.75323558  0.44089029  0.93902010     0.15500
C713        C  0.37011472  0.40658810  0.87879031    -0.11800
C714        C  0.37115730  0.43818111  0.86360597     0.14800
C715        C  0.40365200  0.44787304  0.85113929     0.01700
C716        C  0.43472165  0.42753171  0.85591776    -0.16100
C717        C  0.43418800  0.39699240  0.87251855    -0.10900
C718        C  0.40069550  0.38551499  0.88276845     0.08400
C719        C  0.33911134  0.46210259  0.86401342     0.09400
S720        S  0.40737883  0.48638062  0.82950680    -0.25200
H721        H  0.45977360  0.43658325  0.84743028     0.19700
S722        S  0.39473062  0.34454678  0.90139473    -0.30900
H723        H  0.34528777  0.39865501  0.88824542     0.10000
C724        C  0.30513345  0.45037401  0.85511231     0.03200
C725        C  0.27463744  0.47135215  0.86047025    -0.13200
C726        C  0.27747514  0.50428258  0.87393471    -0.08900
C727        C  0.31175002  0.51702820  0.88125866     0.06700
C728        C  0.34199367  0.49572416  0.87651621    -0.14000
S729        S  0.30052995  0.40848259  0.83724522    -0.30900
H730        H  0.24833745  0.46158098  0.85497740     0.10900
S731        S  0.31845459  0.55881106  0.89874753    -0.28000
H732        H  0.36788604  0.50484436  0.88359252     0.08100
H733        H  0.41925263  0.32476863  0.88598338     0.26600
H734        H  0.26339060  0.41076173  0.83283387     0.21400
H735        H  0.29050758  0.57736495  0.88593767     0.26700
H736        H  0.37142642  0.48644881  0.82105164     0.15500
C737        C  0.59013523  0.33638101  0.55745432    -0.11800
C738        C  0.61211518  0.32512513  0.53622621     0.14800
C739        C  0.64750306  0.33825534  0.53504966     0.01700
C740        C  0.66036827  0.36081712  0.55533399    -0.16100
C741        C  0.63843205  0.37291803  0.57649129    -0.10900
C742        C  0.60256655  0.36032866  0.57737527     0.08400
C743        C  0.59701304  0.30127311  0.51487992     0.09400
S744        S  0.67717837  0.32920934  0.50734593    -0.25200
H745        H  0.68758640  0.37049515  0.55359294     0.19700
S746        S  0.57180342  0.37482547  0.60310886    -0.30900
H747        H  0.56286493  0.32666663  0.55810705     0.10000
C748        C  0.61155504  0.26709220  0.50925499     0.03200
C749        C  0.59924023  0.24776451  0.48680264    -0.13200
C750        C  0.57196441  0.26126891  0.47012006    -0.08900
C751        C  0.55600916  0.29452664  0.47673275     0.06700
C752        C  0.56857976  0.31398842  0.49897261    -0.14000
S753        S  0.64509324  0.24754877  0.53101735    -0.30900
H754        H  0.61062322  0.22175011  0.48233488     0.10900
S755        S  0.52084159  0.31452435  0.45686360    -0.28000
H756        H  0.55701749  0.34000752  0.50328463     0.08100
H757        H  0.54163790  0.35591597  0.59385917     0.26600
H758        H  0.65039780  0.21590331  0.51615927     0.21400
H759        H  0.53531085  0.30449507  0.43195864     0.26700
H760        H  0.65036651  0.32782042  0.48750990     0.15500
C761        C  0.40335531  0.39591482  0.35826680    -0.11800
C762        C  0.43604078  0.38940527  0.37147519     0.14800
C763        C  0.45158277  0.41692759  0.38708172     0.01700
C764        C  0.43403751  0.44978442  0.38949950    -0.16100
C765        C  0.40023011  0.45556643  0.37784232    -0.10900
C766        C  0.38514861  0.42853940  0.36145898     0.08400
C767        C  0.45248172  0.35324966  0.37020796     0.09400
S768        S  0.49241039  0.41106571  0.40606508    -0.25200
H769        H  0.44587245  0.47017956  0.40224134     0.19700
S770        S  0.34303752  0.43402411  0.34415654    -0.30900
H771        H  0.39153130  0.37505844  0.34595578     0.10000
C772        C  0.43561931  0.32359300  0.38217677     0.03200
C773        C  0.45423091  0.29117935  0.38440085    -0.13200
C774        C  0.48977065  0.28757572  0.37541190    -0.08900
C775        C  0.50569363  0.31675317  0.36182999     0.06700
C776        C  0.48691815  0.34917251  0.35942396    -0.14000
S777        S  0.39166594  0.32769426  0.39697639    -0.30900
H778        H  0.44158979  0.26914641  0.39479673     0.10900
S779        S  0.54969316  0.31464510  0.34731669    -0.28000
H780        H  0.49969160  0.37184051  0.34983858     0.08100
H781        H  0.34669863  0.47115349  0.34007308     0.26600
H782        H  0.38798364  0.29174149  0.40497474     0.21400
H783        H  0.54627889  0.27886218  0.33884340     0.26700
H784        H  0.48541124  0.37553482  0.41384048     0.15500
C785        C  0.53337767  0.83443406  0.15103379    -0.11800
C786        C  0.55164697  0.85044545  0.12957432     0.14800
C787        C  0.55382892  0.83203984  0.10494458     0.01700
C788        C  0.53724482  0.79879613  0.10202431    -0.16100
C789        C  0.51855255  0.78240423  0.12321952    -0.10900
C790        C  0.51710665  0.80055272  0.14823416     0.08400
C791        C  0.56772860  0.88661968  0.13258152     0.09400
S792        S  0.57623127  0.85017907  0.07594979    -0.25200
H793        H  0.53857800  0.78594874  0.08254596     0.19700
S794        S  0.49567094  0.78194390  0.17735268    -0.30900
H795        H  0.53182447  0.84840408  0.17006838     0.10000
C796        C  0.55082091  0.91711549  0.12167647     0.03200
C797        C  0.56984429  0.94944616  0.11977112    -0.13200
C798        C  0.60581732  0.95192000  0.12808500    -0.08900
C799        C  0.62185026  0.92181911  0.14064068     0.06700
C800        C  0.60265468  0.88962441  0.14275833    -0.14000
S801        S  0.50572102  0.91419113  0.10863245    -0.30900
H802        H  0.55729051  0.97228021  0.11018027     0.10900
S803        S  0.66682809  0.92240787  0.15384131    -0.28000
H804        H  0.61566682  0.86620679  0.15119768     0.08100
H805        H  0.50884501  0.74704572  0.17309762     0.26600
H806        H  0.50339700  0.94958614  0.09905115     0.21400
H807        H  0.66595775  0.95864146  0.16168159     0.26700
H808        H  0.60412944  0.86700696  0.09007862     0.15500
C809        C  0.60596716  0.17576808  0.26969317    -0.11800
C810        C  0.62629253  0.14423697  0.26689021     0.14800
C811        C  0.63461882  0.12400857  0.28993376     0.01700
C812        C  0.62103790  0.13444408  0.31479234    -0.16100
C813        C  0.59916670  0.16500892  0.31776728    -0.10900
C814        C  0.59210089  0.18622807  0.29477105     0.08400
C815        C  0.63511705  0.13053043  0.23968493     0.09400
S816        S  0.66105105  0.08348207  0.28881561    -0.25200
H817        H  0.62749291  0.11802624  0.33207132     0.19700
S818        S  0.56378590  0.22527138  0.29555717    -0.30900
H819        H  0.59934186  0.19132129  0.25200936     0.10000
C820        C  0.61540798  0.10220991  0.22823649     0.03200
C821        C  0.62575857  0.08794178  0.20340221    -0.13200
C822        C  0.65573378  0.10107393  0.18937681    -0.08900
C823        C  0.67588236  0.12920233  0.20141149     0.06700
C824        C  0.66498838  0.14388751  0.22605762    -0.14000
S825        S  0.57652501  0.08454670  0.24514581    -0.30900
H826        H  0.60984691  0.06663221  0.19472575     0.10900
S827        S  0.71594893  0.14743698  0.18690069    -0.28000
H828        H  0.68059278  0.16520870  0.23512518     0.08100
H829        H  0.53744506  0.20932034  0.31169698     0.26600
H830        H  0.56930456  0.05663580  0.22692987     0.21400
H831        H  0.73191881  0.11356664  0.18334452     0.26700
H832        H  0.68214684  0.09330655  0.26675751     0.15500
C833        C  0.57814577  0.22042589  0.00010943    -0.11800
C834        C  0.60501080  0.23567468  0.01627129     0.14800
C835        C  0.61916361  0.26941803  0.00878313     0.01700
C836        C  0.60687225  0.28639466  0.98530158    -0.16100
C837        C  0.57982408  0.27116273  0.96923515    -0.10900
C838        C  0.56543583  0.23763440  0.97693996     0.08400
C839        C  0.61985078  0.21398302  0.03903586     0.09400
S840        S  0.65234494  0.29266560  0.02857597    -0.25200
H841        H  0.61796559  0.31221359  0.97986742     0.19700
S842        S  0.53251136  0.21413535  0.95718427    -0.30900
H843        H  0.56772740  0.19419361  0.00512156     0.10000
C844        C  0.59812369  0.20114864  0.06006154     0.03200
C845        C  0.61236615  0.17685268  0.07893831    -0.13200
C846        C  0.64808817  0.16479237  0.07749507    -0.08900
C847        C  0.67050021  0.18031687  0.05763563     0.06700
C848        C  0.65598070  0.20379848  0.03849790    -0.14000
S849        S  0.55199710  0.21524636  0.06273896    -0.30900
H850        H  0.59498011  0.16601055  0.09420561     0.10900
S851        S  0.71774732  0.17126523  0.05494083    -0.28000
H852        H  0.67301249  0.21378032  0.02263310     0.08100
H853        H  0.54770044  0.22401655  0.93259188     0.26600
H854        H  0.54253909  0.19224712  0.08389194     0.21400
H855        H  0.72410316  0.17544220  0.08262349     0.26700
H856        H  0.64196861  0.27815062  0.05337486     0.15500
C857        C  0.40702421  0.71721891  0.44078423    -0.11800
C858        C  0.39268628  0.72016108  0.46663268     0.14800
C859        C  0.36288863  0.69900639  0.47368461     0.01700
C860        C  0.34971998  0.67370503  0.45548601    -0.16100
C861        C  0.36532147  0.66908910  0.43009867    -0.10900
C862        C  0.39341681  0.69225852  0.42234072     0.08400
C863        C  0.41132012  0.74260122  0.48676949     0.09400
S864        S  0.34193451  0.70132703  0.50620503    -0.25200
H865        H  0.32816738  0.65626255  0.46179680     0.19700
S866        S  0.41306390  0.69135301  0.38937864    -0.30900
H867        H  0.42955904  0.73382250  0.43520058     0.10000
C868        C  0.43425105  0.72686118  0.50591186     0.03200
C869        C  0.44778523  0.74771418  0.52691276    -0.13200
C870        C  0.43978300  0.78430836  0.52879447    -0.08900
C871        C  0.41859398  0.80070669  0.50863580     0.06700
C872        C  0.40458803  0.77957683  0.48780278    -0.14000
S873        S  0.44655784  0.68023386  0.50352096    -0.30900
H874        H  0.46460795  0.73547799  0.54210575     0.10900
S875        S  0.40716176  0.84775573  0.50864792    -0.28000
H876        H  0.38725994  0.79173202  0.47287428     0.08100
H877        H  0.38121174  0.68195716  0.37596352     0.26600
H878        H  0.46770503  0.67879444  0.52690638     0.21400
H879        H  0.41032447  0.85364114  0.53631569     0.26700
H880        H  0.34951262  0.73764506  0.51106345     0.15500
C881        C  0.52269626  0.68035637  0.62456432    -0.11800
C882        C  0.55624912  0.68290978  0.63719499     0.14800
C883        C  0.56883785  0.71707852  0.64519909     0.01700
C884        C  0.54845794  0.74773301  0.63933147    -0.16100
C885        C  0.51532139  0.74505619  0.62616880    -0.10900
C886        C  0.50205656  0.71086776  0.61919362     0.08400
C887        C  0.57932901  0.65035549  0.63774151     0.09400
S888        S  0.61109282  0.72343654  0.66215398    -0.25200
H889        H  0.55889790  0.77394508  0.64450867     0.19700
S890        S  0.46059308  0.70458570  0.60117723    -0.30900
H891        H  0.51315743  0.65445396  0.61777943     0.10000
C892        C  0.56908064  0.61856063  0.65095315     0.03200
C893        C  0.58910026  0.58696076  0.64713562    -0.13200
C894        C  0.61952276  0.58644743  0.63057378    -0.08900
C895        C  0.63062852  0.61913151  0.61855772     0.06700
C896        C  0.61030932  0.65025193  0.62206679    -0.14000
S897        S  0.53036315  0.61819565  0.67251166    -0.30900
H898        H  0.58053088  0.56232701  0.65659199     0.10900
S899        S  0.66831701  0.62271274  0.59629279    -0.28000
H900        H  0.61803770  0.67447345  0.61158493     0.08100
H901        H  0.44204146  0.73264333  0.61377666     0.26600
H902        H  0.53174206  0.58154872  0.67905956     0.21400
H903        H  0.69310402  0.61309189  0.61637796     0.26700
H904        H  0.61240983  0.68925504  0.67398623     0.15500
C905        C  0.48596665  0.01447707  0.54160620    -0.11800
C906        C  0.50076084  0.01111415  0.51610704     0.14800
C907        C  0.51225217  0.97720602  0.50680392     0.01700
C908        C  0.50754839  0.94707153  0.52311526    -0.16100
C909        C  0.49190527  0.95031333  0.54851957    -0.10900
C910        C  0.48185829  0.98471745  0.55804319     0.08400
C911        C  0.50269666  0.04356925  0.49960745     0.09400
S912        S  0.53216906  0.97044023  0.47425600    -0.25200
H913        H  0.51556674  0.92092381  0.51577487     0.19700
S914        S  0.46483941  0.99304784  0.59128011    -0.30900
H915        H  0.47763548  0.04062815  0.54878284     0.10000
C916        C  0.47752262  0.04990261  0.47911431     0.03200
C917        C  0.48154485  0.08004221  0.46286725    -0.13200
C918        C  0.50978814  0.10412812  0.46715859    -0.08900
C919        C  0.53359345  0.09908999  0.48874565     0.06700
C920        C  0.52974641  0.06867682  0.50492609    -0.14000
S921        S  0.44083425  0.01928296  0.47332464    -0.30900
H922        H  0.46353635  0.08421559  0.44605703     0.10900
S923        S  0.57042836  0.12959921  0.49423173    -0.28000
H924        H  0.54845999  0.06367498  0.52114280     0.08100
H925        H  0.48974637  0.97041282  0.60395388     0.26600
H926        H  0.42396404  0.03922568  0.45291422     0.21400
H927        H  0.58396355  0.11285294  0.51742889     0.26700
H928        H  0.54525851  0.00540913  0.47083453     0.15500
C929        C  0.44048306  0.84194971  0.95212681    -0.11800
C930        C  0.41511714  0.81750676  0.96176950     0.14800
C931        C  0.37975509  0.81916582  0.95170478     0.01700
C932        C  0.36993848  0.84652294  0.93389781    -0.16100
C933        C  0.39463512  0.87253873  0.92546262    -0.10900
C934        C  0.43084671  0.86917148  0.93391455     0.08400
C935        C  0.42471774  0.79406355  0.98490539     0.09400
S936        S  0.34548736  0.78792982  0.96168877    -0.25200
H937        H  0.34229429  0.84822615  0.92741677     0.19700
S938        S  0.46520611  0.89918596  0.92188056    -0.30900
H939        H  0.46759719  0.84052681  0.95979097     0.10000
C940        C  0.44958116  0.76568949  0.98300898     0.03200
C941        C  0.45722206  0.74465242  0.00583331    -0.13200
C942        C  0.44020160  0.75105588  0.03060405    -0.08900
C943        C  0.41448425  0.77912530  0.03191507     0.06700
C944        C  0.40784640  0.80052781  0.00944673    -0.14000
S945        S  0.47091105  0.75575485  0.95142642    -0.30900
H946        H  0.47678587  0.72331650  0.00437999     0.10900
S947        S  0.38769720  0.78859403  0.06105726    -0.28000
H948        H  0.38851449  0.82214283  0.01092539     0.08100
H949        H  0.49448168  0.88215312  0.93432875     0.26600
H950        H  0.48915366  0.72477780  0.96000773     0.21400
H951        H  0.37803519  0.75255137  0.06483840     0.26700
H952        H  0.36880237  0.75910104  0.96686751     0.15500
C953        C  0.53142558  0.06428922  0.01641923    -0.11800
C954        C  0.51800919  0.03024984  0.01007494     0.14800
C955        C  0.53783141  0.99953047  0.01753929     0.01700
C956        C  0.56836019  0.00345845  0.03360841    -0.16100
C957        C  0.58087610  0.03756011  0.04113928    -0.10900
C958        C  0.56307120  0.06834532  0.03117935     0.08400
C959        C  0.48472159  0.02819529  0.99396793     0.09400
S960        S  0.52622660  0.95479648  0.00676516    -0.25200
H961        H  0.58218859  0.97960753  0.04048961     0.19700
S962        S  0.58116045  0.11286208  0.03572765    -0.30900
H963        H  0.51709182  0.08778188  0.00947208     0.10000
C964        C  0.45345163  0.01090967  0.00316896     0.03200
C965        C  0.42389078  0.00749081  0.98580119    -0.13200
C966        C  0.42480962  0.02217697  0.95992084    -0.08900
C967        C  0.45469189  0.04291956  0.95215926     0.06700
C968        C  0.48449778  0.04486894  0.96885784    -0.14000
S969        S  0.45105628  0.99353819  0.03691795    -0.30900
H970        H  0.40073225  0.99220873  0.99193625     0.10900
S971        S  0.45631073  0.06793740  0.92127280    -0.28000
H972        H  0.50787099  0.05945848  0.96214857     0.08100
H973        H  0.55233085  0.13195334  0.02445143     0.26600
H974        H  0.41591840  0.98024872  0.03509834     0.21400
H975        H  0.41992768  0.07749270  0.92207498     0.26700
H976        H  0.51037156  0.96494740  0.98229200     0.15500
C977        C  0.37366229  0.87761915  0.78460922    -0.11800
C978        C  0.37444805  0.90225165  0.76344146     0.14800
C979        C  0.36348505  0.93806044  0.76799061     0.01700
C980        C  0.35361679  0.94871366  0.79390982    -0.16100
C981        C  0.35408743  0.92429769  0.81525876    -0.10900
C982        C  0.36350445  0.88822399  0.81038184     0.08400
C983        C  0.38956069  0.89032430  0.73756878     0.09400
S984        S  0.36379639  0.97198603  0.74219538    -0.25200
H985        H  0.34698246  0.97656515  0.79768529     0.19700
S986        S  0.36469013  0.85497486  0.83656719    -0.30900
H987        H  0.38203084  0.85016170  0.78117306     0.10000
C988        C  0.42630424  0.89393774  0.73211685     0.03200
C989        C  0.43955889  0.88319231  0.70708397    -0.13200
C990        C  0.41680150  0.86890133  0.68723256    -0.08900
C991        C  0.37989671  0.86477898  0.69314855     0.06700
C992        C  0.36692840  0.87491982  0.71834629    -0.14000
S993        S  0.45620793  0.91267542  0.75698832    -0.30900
H994        H  0.46773932  0.88651423  0.70278676     0.10900
S995        S  0.34731268  0.84948992  0.66900704    -0.28000
H996        H  0.33866003  0.87211759  0.72266225     0.08100
H997        H  0.33543800  0.86912123  0.85073496     0.26600
H998        H  0.48808003  0.90724061  0.74261536     0.21400
H999        H  0.35770728  0.87448188  0.64944054     0.26700
H1000       H  0.36036315  0.94891452  0.72008323     0.15500
C1001       C  0.44548842  0.11271450  0.84529762    -0.11800
C1002       C  0.43709039  0.14376189  0.85999099     0.14800
C1003       C  0.40533425  0.14426995  0.87522774     0.01700
C1004       C  0.38394748  0.11363889  0.87657566    -0.16100
C1005       C  0.39401314  0.08121264  0.86418874    -0.10900
C1006       C  0.42422778  0.08165343  0.84698447     0.08400
C1007       C  0.46178189  0.17513881  0.85996315     0.09400
S1008       S  0.39192887  0.18225488  0.89528484    -0.25200
H1009       H  0.36057326  0.11450013  0.88935904     0.19700
S1010       S  0.43807325  0.04344079  0.82751867    -0.30900
H1011       H  0.46924682  0.11242606  0.83290336     0.10000
C1012       C  0.49521273  0.17400482  0.87328983     0.03200
C1013       C  0.51426190  0.20598947  0.87769083    -0.13200
C1014       C  0.50009409  0.23930172  0.86988292    -0.08900
C1015       C  0.46836208  0.23986165  0.85427408     0.06700
C1016       C  0.44960625  0.20793439  0.84956089    -0.14000
S1017       S  0.51223267  0.13244984  0.88686489    -0.30900
H1018       H  0.53913365  0.20524442  0.88882129     0.10900
S1019       S  0.45017669  0.28048883  0.84009602    -0.28000
H1020       H  0.42438505  0.20888877  0.83876658     0.08100
H1021       H  0.40324562  0.03584550  0.81827567     0.26600
H1022       H  0.54174987  0.14710588  0.90059855     0.21400
H1023       H  0.48328763  0.29806942  0.83756429     0.26700
H1024       H  0.42665830  0.19136368  0.90384258     0.15500
C1025       C  0.08502542  0.85057710  0.46569585    -0.11800
C1026       C  0.11046540  0.82331628  0.46906327     0.14800
C1027       C  0.14154439  0.82352419  0.45309202     0.01700
C1028       C  0.14754558  0.85215386  0.43551409    -0.16100
C1029       C  0.12285052  0.88055257  0.43283049    -0.10900
C1030       C  0.09055435  0.87904817  0.44779936     0.08400
C1031       C  0.10393098  0.79620416  0.49028009     0.09400
S1032       S  0.17480859  0.78843113  0.45439696    -0.25200
H1033       H  0.17221312  0.85242510  0.42417667     0.19700
S1034       S  0.05587501  0.91281705  0.44481744    -0.30900
H1035       H  0.06100637  0.84985769  0.47775675     0.10000
C1036       C  0.12410566  0.79560774  0.51426652     0.03200
C1037       C  0.11420807  0.77226472  0.53504718    -0.13200
C1038       C  0.08408566  0.74993564  0.53263255    -0.08900
C1039       C  0.06495172  0.74955283  0.50805106     0.06700
C1040       C  0.07484602  0.77282114  0.48736296    -0.14000
S1041       S  0.16063484  0.82657653  0.51936202    -0.30900
H1042       H  0.12879547  0.77289297  0.55384577     0.10900
S1043       S  0.02797860  0.71981027  0.50161961    -0.28000
H1044       H  0.05946491  0.77303718  0.46888333     0.08100
H1045       H  0.03157269  0.89793509  0.46316155     0.26600
H1046       H  0.17229070  0.81276138  0.54415111     0.21400
H1047       H  0.04318158  0.69112216  0.51584454     0.26700
H1048       H  0.15177185  0.76114598  0.46317403     0.15500
C1049       C  0.11193540  0.14959489  0.36047992    -0.11800
C1050       C  0.07467191  0.14812878  0.35711249     0.14800
C1051       C  0.05792730  0.11440918  0.35430658     0.01700
C1052       C  0.07817503  0.08303582  0.35752102    -0.16100
C1053       C  0.11482475  0.08458020  0.36378882    -0.10900
C1054       C  0.13216366  0.11822996  0.36373688     0.08400
C1055       C  0.05372177  0.18096491  0.36301981     0.09400
S1056       S  0.01023040  0.10975329  0.34998847    -0.25200
H1057       H  0.06452515  0.05741484  0.35758426     0.19700
S1058       S  0.17962640  0.12287418  0.36938066    -0.30900
H1059       H  0.12497134  0.17539633  0.36253842     0.10000
C1060       C  0.04299619  0.18806517  0.38954649     0.03200
C1061       C  0.02533822  0.22015963  0.39541877    -0.13200
C1062       C  0.01750008  0.24542068  0.37536023    -0.08900
C1063       C  0.02772298  0.23809474  0.34861142     0.06700
C1064       C  0.04586773  0.20594448  0.34273501    -0.14000
S1065       S  0.05242340  0.15644454  0.41616952    -0.30900
H1066       H  0.01753580  0.22569765  0.41590487     0.10900
S1067       S  0.01988934  0.26908081  0.32148231    -0.28000
H1068       H  0.05433733  0.20056687  0.32236474     0.08100
H1069       H  0.18869945  0.08883016  0.35928979     0.26600
H1070       H  0.03432744  0.17489226  0.43667957     0.21400
H1071       H  0.02259053  0.30036094  0.33707450     0.26700
H1072       H  0.00483447  0.14292968  0.33726861     0.15500
C1073       C  0.32253275  0.94088419  0.55800183    -0.11800
C1074       C  0.30624631  0.91764642  0.53946024     0.14800
C1075       C  0.31432917  0.88072325  0.54067532     0.01700
C1076       C  0.33845912  0.86802692  0.55998924    -0.16100
C1077       C  0.35654450  0.89129594  0.57775889    -0.10900
C1078       C  0.34743397  0.92830142  0.57716119     0.08400
C1079       C  0.28292562  0.93280757  0.51794136     0.09400
S1080       S  0.29650129  0.84847482  0.51714496    -0.25200
H1081       H  0.34462787  0.83963980  0.55996903     0.19700
S1082       S  0.36776797  0.96030557  0.59979887    -0.30900
H1083       H  0.31625654  0.96918753  0.55694344     0.10000
C1084       C  0.24588608  0.92550538  0.51643666     0.03200
C1085       C  0.22609688  0.93685813  0.49386223    -0.13200
C1086       C  0.24244571  0.95613954  0.47306645    -0.08900
C1087       C  0.27921518  0.96454863  0.47517821     0.06700
C1088       C  0.29890677  0.95307880  0.49756365    -0.14000
S1089       S  0.22383285  0.90216376  0.54341375    -0.30900
H1090       H  0.19782115  0.93077660  0.49236185     0.10900
S1091       S  0.30289404  0.98830966  0.44931705    -0.28000
H1092       H  0.32732196  0.95877049  0.49859016     0.08100
H1093       H  0.34721001  0.99024846  0.59217308     0.26600
H1094       H  0.18893148  0.90481178  0.53291893     0.21400
H1095       H  0.28616817  0.97008829  0.42802929     0.26700
H1096       H  0.29584646  0.87155876  0.49488225     0.15500
C1097       C  0.33237400  0.03928137  0.35616163    -0.11800
C1098       C  0.34521989  0.06495172  0.37451288     0.14800
C1099       C  0.32406078  0.07380871  0.39700835     0.01700
C1100       C  0.29027749  0.05844107  0.39992711    -0.16100
C1101       C  0.27740643  0.03268862  0.38176509    -0.10900
C1102       C  0.29890834  0.02278172  0.35971662     0.08400
C1103       C  0.37987827  0.08342005  0.36960432     0.09400
S1104       S  0.33916155  0.10346232  0.42335520    -0.25200
H1105       H  0.27443594  0.06554693  0.41732489     0.19700
S1106       S  0.28471561  0.99033271  0.33509046    -0.30900
H1107       H  0.34832796  0.03239242  0.33879980     0.10000
C1108       C  0.41289709  0.06497965  0.37042848     0.03200
C1109       C  0.44502410  0.08459971  0.37032765    -0.13200
C1110       C  0.44475826  0.12224709  0.37018671    -0.08900
C1111       C  0.41177767  0.14044100  0.36751099     0.06700
C1112       C  0.37985645  0.12089716  0.36690998    -0.14000
S1113       S  0.41425323  0.01692658  0.37476595    -0.30900
H1114       H  0.47027473  0.07074130  0.37297405     0.10900
S1115       S  0.40865412  0.18868366  0.36652902    -0.28000
H1116       H  0.35460775  0.13518037  0.36590281     0.08100
H1117       H  0.24801594  0.99839066  0.33676493     0.26600
H1118       H  0.45170131  0.01323574  0.37394726     0.21400
H1119       H  0.44283176  0.19411762  0.35555270     0.26700
H1120       H  0.37547338  0.09370075  0.42178770     0.15500
C1121       C  0.10156278  0.76467889  0.99669482    -0.11800
C1122       C  0.09015180  0.72890980  0.99462591     0.14800
C1123       C  0.06669057  0.71535853  0.01442200     0.01700
C1124       C  0.05445160  0.73787985  0.03503399    -0.16100
C1125       C  0.06660057  0.77333497  0.03741514    -0.10900
C1126       C  0.09016889  0.78690336  0.01773686     0.08400
C1127       C  0.10499009  0.70612911  0.97257916     0.09400
S1128       S  0.05362593  0.66897033  0.01579936    -0.25200
H1129       H  0.03704998  0.72693717  0.05031701     0.19700
S1130       S  0.10650573  0.83241342  0.01819690    -0.30900
H1131       H  0.11973974  0.77533800  0.98181946     0.10000
C1132       C  0.08363237  0.69214572  0.95165150     0.03200
C1133       C  0.09911709  0.66951096  0.93216826    -0.13200
C1134       C  0.13577546  0.66047937  0.93289469    -0.08900
C1135       C  0.15755377  0.67683793  0.95305214     0.06700
C1136       C  0.14178066  0.69904842  0.97250785    -0.14000
S1137       S  0.03664518  0.70323676  0.94966553    -0.30900
H1138       H  0.08220417  0.65779283  0.91683661     0.10900
S1139       S  0.20562059  0.67051575  0.95469710    -0.28000
H1140       H  0.15817495  0.71082984  0.98814492     0.08100
H1141       H  0.07588844  0.84748860  0.03007217     0.26600
H1142       H  0.02926805  0.68422576  0.92590479     0.21400
H1143       H  0.21166122  0.68779216  0.97938696     0.26700
H1144       H  0.08694899  0.65570565  0.00729897     0.15500
C1145       C  0.95577509  0.70157790  0.15751113    -0.11800
C1146       C  0.96339958  0.67212598  0.14085466     0.14800
C1147       C  0.99055920  0.67574434  0.12128448     0.01700
C1148       C  0.00950217  0.70806479  0.11915639    -0.16100
C1149       C  0.00081205  0.73796910  0.13500017    -0.10900
C1150       C  0.97400941  0.73429545  0.15476856     0.08400
C1151       C  0.94075992  0.63923122  0.14281745     0.09400
S1152       S  0.00038707  0.64145822  0.09679082    -0.25200
H1153       H  0.02928254  0.71077584  0.10344508     0.19700
S1154       S  0.96166062  0.77045001  0.17693009    -0.30900
H1155       H  0.93495187  0.69925079  0.17247130     0.10000
C1156       C  0.95508237  0.60521964  0.14932072     0.03200
C1157       C  0.93365543  0.57438179  0.14639500    -0.13200
C1158       C  0.89794024  0.57690670  0.13759080    -0.08900
C1159       C  0.88265535  0.61135116  0.13426845     0.06700
C1160       C  0.90421044  0.64192770  0.13652054    -0.14000
S1161       S  0.00082798  0.60098438  0.16070865    -0.30900
H1162       H  0.94543228  0.54812978  0.14930020     0.10900
S1163       S  0.83588599  0.61791941  0.12662174    -0.28000
H1164       H  0.89261377  0.66801756  0.13243878     0.08100
H1165       H  0.99528017  0.78737276  0.17673474     0.26600
H1166       H  0.00048896  0.56360141  0.16438500     0.21400
H1167       H  0.82428306  0.58666139  0.13973444     0.26700
H1168       H  0.96527803  0.62827867  0.09455778     0.15500
C1169       C  0.90476875  0.95851328  0.14892879    -0.11800
C1170       C  0.87378601  0.93768332  0.15228175     0.14800
C1171       C  0.87763079  0.90003623  0.15471465     0.01700
C1172       C  0.91112513  0.88400990  0.15051224    -0.16100
C1173       C  0.94159506  0.90470015  0.14519046    -0.10900
C1174       C  0.93862901  0.94249177  0.14569471     0.08400
C1175       C  0.83802992  0.95478412  0.14748638     0.09400
S1176       S  0.84042759  0.87082630  0.16181313    -0.25200
H1177       H  0.91318771  0.85503096  0.15038776     0.19700
S1178       S  0.97700648  0.97044680  0.13893039    -0.30900
H1179       H  0.90201969  0.98724521  0.14678397     0.10000
C1180       C  0.82537217  0.98467638  0.16209915     0.03200
C1181       C  0.79333066  0.00187472  0.15409923    -0.13200
C1182       C  0.77292084  0.98934593  0.13212935    -0.08900
C1183       C  0.78464781  0.95753767  0.11902043     0.06700
C1184       C  0.81723140  0.94175149  0.12618555    -0.14000
S1185       S  0.84967436  0.00069021  0.19109708    -0.30900
H1186       H  0.78458314  0.02560606  0.16471571     0.10900
S1187       S  0.75973997  0.93481542  0.09304244    -0.28000
H1188       H  0.82657350  0.91879906  0.11484456     0.08100
H1189       H  0.95936911  0.00366052  0.14105578     0.26600
H1190       H  0.82528283  0.02774246  0.19834777     0.21400
H1191       H  0.72729357  0.93605993  0.10726574     0.26700
H1192       H  0.81965727  0.89692387  0.17493733     0.15500
C1193       C  0.11048483  0.91849024  0.28062249    -0.11800
C1194       C  0.13711211  0.89863539  0.26771813     0.14800
C1195       C  0.17132863  0.89598021  0.27984010     0.01700
C1196       C  0.17775105  0.91257131  0.30480314    -0.16100
C1197       C  0.15068871  0.93186803  0.31807274    -0.10900
C1198       C  0.11692121  0.93550854  0.30513274     0.08400
C1199       C  0.12865848  0.88454851  0.24047665     0.09400
S1200       S  0.20759786  0.87135731  0.26475893    -0.25200
H1201       H  0.20370608  0.90941323  0.31427503     0.19700
S1202       S  0.08124677  0.96318824  0.31786346    -0.30900
H1203       H  0.08460869  0.92173232  0.27100303     0.10000
C1204       C  0.10416703  0.85621850  0.23646326     0.03200
C1205       C  0.09214670  0.84802954  0.21032304    -0.13200
C1206       C  0.10388601  0.86788628  0.18808480    -0.08900
C1207       C  0.13020395  0.89474063  0.19218109     0.06700
C1208       C  0.14192531  0.90292960  0.21818383    -0.14000
S1209       S  0.08760657  0.83113796  0.26476223    -0.30900
H1210       H  0.07233943  0.82723861  0.20733706     0.10900
S1211       S  0.15018087  0.91952964  0.16509643    -0.28000
H1212       H  0.16090851  0.92452971  0.22114626     0.08100
H1213       H  0.10420024  0.99201458  0.32356891     0.26600
H1214       H  0.06701663  0.80653388  0.24990315     0.21400
H1215       H  0.15043616  0.89035656  0.14728916     0.26700
H1216       H  0.18614793  0.84740990  0.25003180     0.15500
C1217       C  0.20382276  0.89831075  0.05574060    -0.11800
C1218       C  0.19367260  0.91904643  0.03346757     0.14800
C1219       C  0.15743454  0.92905087  0.03057038     0.01700
C1220       C  0.13253546  0.91884072  0.05000400    -0.16100
C1221       C  0.14220688  0.89739685  0.07216536    -0.10900
C1222       C  0.17864054  0.88719501  0.07490616     0.08400
C1223       C  0.22089950  0.92863509  0.01293662     0.09400
S1224       S  0.14091581  0.95403002  0.00211025    -0.25200
H1225       H  0.10487034  0.92668939  0.04706712     0.19700
S1226       S  0.19501991  0.86093971  0.10258876    -0.30900
H1227       H  0.23157832  0.89040346  0.05805693     0.10000
C1228       C  0.23223206  0.96423428  0.00895602     0.03200
C1229       C  0.25502008  0.97237940  0.98741969    -0.13200
C1230       C  0.26702708  0.94570770  0.96949213    -0.08900
C1231       C  0.25626342  0.90961637  0.97417718     0.06700
C1232       C  0.23355835  0.90173534  0.99581440    -0.14000
S1233       S  0.21777957  0.99934595  0.03142494    -0.30900
H1234       H  0.26331828  0.99988311  0.98448975     0.10900
S1235       S  0.26913300  0.87306607  0.95233217    -0.28000
H1236       H  0.22435337  0.87452843  0.99888092     0.08100
H1237       H  0.17640789  0.83008184  0.09425246     0.26600
H1238       H  0.23027359  0.02824241  0.01597716     0.21400
H1239       H  0.25786121  0.84485608  0.96897613     0.26700
H1240       H  0.16445998  0.93914232  0.98320219     0.15500
C1241       C  0.90633055  0.88589328  0.63026325    -0.11800
C1242       C  0.94157601  0.88783855  0.63994923     0.14800
C1243       C  0.95493758  0.92136094  0.64866782     0.01700
C1244       C  0.93395444  0.95234206  0.64543824    -0.16100
C1245       C  0.89952167  0.95063402  0.63401946    -0.10900
C1246       C  0.88503159  0.91657362  0.62780329     0.08400
C1247       C  0.96457768  0.85535967  0.63751583     0.09400
S1248       S  0.99894670  0.92651594  0.66312433    -0.25200
H1249       H  0.94537417  0.97813727  0.65058992     0.19700
S1250       S  0.83963957  0.91044319  0.61634751    -0.30900
H1251       H  0.89561892  0.86032624  0.62376427     0.10000
C1252       C  0.95552526  0.82261256  0.64991762     0.03200
C1253       C  0.97470034  0.79136890  0.64344989    -0.13200
C1254       C  0.00337241  0.79220396  0.62531760    -0.08900
C1255       C  0.01358067  0.82540585  0.61405703     0.06700
C1256       C  0.99387522  0.85637011  0.61997711    -0.14000
S1257       S  0.91952186  0.82052376  0.67394003    -0.30900
H1258       H  0.96701122  0.76598465  0.65220866     0.10900
S1259       S  0.04891383  0.82922211  0.58977695    -0.28000
H1260       H  0.00066603  0.88127546  0.61006490     0.08100
H1261       H  0.82597738  0.93906334  0.63155527     0.26600
H1262       H  0.92223951  0.78363734  0.67944671     0.21400
H1263       H  0.07538821  0.81701726  0.60772324     0.26700
H1264       H  0.00143704  0.89149430  0.67339039     0.15500
C1265       C  0.92758841  0.21764898  0.49570927    -0.11800
C1266       C  0.92451915  0.23550793  0.52035496     0.14800
C1267       C  0.93356277  0.27222479  0.52186910     0.01700
C1268       C  0.94458954  0.29024674  0.49860141    -0.16100
C1269       C  0.94676070  0.27271834  0.47362349    -0.10900
C1270       C  0.93870631  0.23557642  0.47241414     0.08400
C1271       C  0.91179891  0.21443504  0.54372804     0.09400
S1272       S  0.93144835  0.29808439  0.55249519    -0.25200
H1273       H  0.95076988  0.31858046  0.49995061     0.19700
S1274       S  0.94383713  0.21002655  0.44178966    -0.30900
H1275       H  0.92119468  0.18935169  0.49484748     0.10000
C1276       C  0.87504583  0.20796228  0.54769901     0.03200
C1277       C  0.86421378  0.18318263  0.56727388    -0.13200
C1278       C  0.88947641  0.16436935  0.58280912    -0.08900
C1279       C  0.92617053  0.17305503  0.58021242     0.06700
C1280       C  0.93693232  0.19782944  0.56059257    -0.14000
S1281       S  0.84208487  0.23000943  0.52684366    -0.30900
H1282       H  0.83612269  0.17660160  0.56916277     0.10900
S1283       S  0.95949401  0.15207999  0.60139917    -0.28000
H1284       H  0.96508293  0.20330732  0.55761115     0.08100
H1285       H  0.93271182  0.17668647  0.45191642     0.26600
H1286       H  0.81177405  0.21424767  0.53857944     0.21400
H1287       H  0.98920087  0.17087088  0.59142016     0.26700
H1288       H  0.91471184  0.27281374  0.56901739     0.15500
C1289       C  0.04864879  0.01509479  0.50323986    -0.11800
C1290       C  0.01751837  0.03030600  0.49201935     0.14800
C1291       C  0.01893619  0.04523264  0.46607557     0.01700
C1292       C  0.05078952  0.04368684  0.45179206    -0.16100
C1293       C  0.08097220  0.02548426  0.46188139    -0.10900
C1294       C  0.08000593  0.01148055  0.48814734     0.08400
C1295       C  0.98391167  0.02997772  0.50757954     0.09400
S1296       S  0.98056880  0.06424115  0.44911180    -0.25200
H1297       H  0.05120324  0.05479546  0.43169740     0.19700
S1298       S  0.11636024  0.98614380  0.50255670    -0.30900
H1299       H  0.04785158  0.00416352  0.52336105     0.10000
C1300       C  0.96816774  0.99757349  0.51617639     0.03200
C1301       C  0.93740343  0.99881536  0.53213042    -0.13200
C1302       C  0.92113349  0.03160296  0.53833993    -0.08900
C1303       C  0.93503832  0.06361784  0.52765995     0.06700
C1304       C  0.96694002  0.06264244  0.51327508    -0.14000
S1305       S  0.98691952  0.95469034  0.50676233    -0.30900
H1306       H  0.92661606  0.97436643  0.54054163     0.10900
S1307       S  0.91381257  0.10657408  0.53207817    -0.28000
H1308       H  0.97851402  0.08754194  0.50626825     0.08100
H1309       H  0.12136960  0.96444553  0.47975709     0.26600
H1310       H  0.96028449  0.93330928  0.51852854     0.21400
H1311       H  0.87900044  0.09338348  0.53591291     0.26700
H1312       H  0.95559490  0.03985287  0.45958206     0.15500
C1313       C  0.69817567  0.15743026  0.46322877    -0.11800
C1314       C  0.70538788  0.12086411  0.46726650     0.14800
C1315       C  0.68806403  0.09543868  0.45062877     0.01700
C1316       C  0.66145039  0.10668974  0.43269799    -0.16100
C1317       C  0.65318370  0.14314340  0.42941337    -0.10900
C1318       C  0.67340466  0.16892115  0.44377363     0.08400
C1319       C  0.72746799  0.10970333  0.49083164     0.09400
S1320       S  0.69837275  0.04817946  0.45150317    -0.25200
H1321       H  0.64685422  0.08671603  0.42127767     0.19700
S1322       S  0.66675902  0.21642374  0.43884232    -0.30900
H1323       H  0.71101918  0.17700022  0.47606898     0.10000
C1324       C  0.76243388  0.12285155  0.49560950     0.03200
C1325       C  0.78132174  0.11153222  0.51855360    -0.13200
C1326       C  0.76654143  0.08655420  0.53640299    -0.08900
C1327       C  0.73170049  0.07347106  0.53153295     0.06700
C1328       C  0.71232346  0.08586339  0.50938572    -0.14000
S1329       S  0.78389362  0.15269982  0.47212991    -0.30900
H1330       H  0.80810669  0.12147004  0.52231498     0.10900
S1331       S  0.70982450  0.04247644  0.55368538    -0.28000
H1332       H  0.68514478  0.07649201  0.50642960     0.08100
H1333       H  0.69447984  0.22825095  0.45583796     0.26600
H1334       H  0.81418196  0.16034367  0.48798663     0.21400
H1335       H  0.73409858  0.01458534  0.54822670     0.26700
H1336       H  0.73417804  0.05244252  0.45972166     0.15500
C1337       C  0.63763052  0.91409389  0.61619960    -0.11800
C1338       C  0.63987538  0.94087214  0.63589020     0.14800
C1339       C  0.60933038  0.94826690  0.65166114     0.01700
C1340       C  0.57709023  0.93012879  0.64647820    -0.16100
C1341       C  0.57475842  0.90357741  0.62651327    -0.10900
C1342       C  0.60596197  0.89507678  0.61166470     0.08400
C1343       C  0.67314385  0.96289548  0.63711777     0.09400
S1344       S  0.60971001  0.98062625  0.67854484    -0.25200
H1345       H  0.55356576  0.93691392  0.65808255     0.19700
S1346       S  0.60643437  0.86289553  0.58470175    -0.30900
H1347       H  0.66058582  0.90866518  0.60359014     0.10000
C1348       C  0.70713541  0.94724578  0.64108363     0.03200
C1349       C  0.73804459  0.96803071  0.63740906    -0.13200
C1350       C  0.73609841  0.00454923  0.63025334    -0.08900
C1351       C  0.70176438  0.02082209  0.62892901     0.06700
C1352       C  0.67097030  0.99971162  0.63159579    -0.14000
S1353       S  0.71131618  0.90069162  0.65067632    -0.30900
H1354       H  0.76393141  0.95539303  0.63945748     0.10900
S1355       S  0.69482410  0.06790883  0.62293897    -0.28000
H1356       H  0.64496414  0.01202216  0.62873269     0.08100
H1357       H  0.60002307  0.83379837  0.60198135     0.26600
H1358       H  0.74894036  0.89924179  0.65091840     0.21400
H1359       H  0.71807543  0.07843252  0.64378064     0.26700
H1360       H  0.64629259  0.97695420  0.68470878     0.15500
C1361       C  0.80319463  0.14571380  0.95851310    -0.11800
C1362       C  0.80572173  0.10908518  0.96450069     0.14800
C1363       C  0.82891396  0.08723092  0.94926783     0.01700
C1364       C  0.85124136  0.10295869  0.93011753    -0.16100
C1365       C  0.85084996  0.14015555  0.92551900    -0.10900
C1366       C  0.82533719  0.16152062  0.93916174     0.08400
C1367       C  0.78574636  0.09529764  0.98799763     0.09400
S1368       S  0.83258519  0.03945123  0.95420425    -0.25200
H1369       H  0.87044836  0.08614687  0.91978790     0.19700
S1370       S  0.82064969  0.20888633  0.93224193    -0.30900
H1371       H  0.78469451  0.16214620  0.96982128     0.10000
C1372       C  0.80349835  0.08622800  0.01209511     0.03200
C1373       C  0.78350534  0.07447590  0.03418342    -0.13200
C1374       C  0.74597444  0.07229197  0.03296784    -0.08900
C1375       C  0.72823733  0.08290652  0.00908250     0.06700
C1376       C  0.74829771  0.09367798  0.98682473    -0.14000
S1377       S  0.85150238  0.09094075  0.01508207    -0.30900
H1378       H  0.79718122  0.06697328  0.05253463     0.10900
S1379       S  0.68017399  0.08572940  0.00622204    -0.28000
H1380       H  0.73456728  0.10178769  0.96861513     0.08100
H1381       H  0.79461137  0.21632948  0.95178046     0.26600
H1382       H  0.85409310  0.08176735  0.04238419     0.21400
H1383       H  0.67496173  0.09964450  0.03217018     0.26700
H1384       H  0.79786329  0.03443537  0.96424660     0.15500
C1385       C  0.96082095  0.97456710  0.02675668    -0.11800
C1386       C  0.98611998  0.98048671  0.00658180     0.14800
C1387       C  0.01526534  0.95664176  0.00378994     0.01700
C1388       C  0.01959699  0.92863020  0.02222001    -0.16100
C1389       C  0.99514187  0.92379194  0.04315936    -0.10900
C1390       C  0.96488619  0.94636169  0.04492296     0.08400
C1391       C  0.98261286  0.01322928  0.99014808     0.09400
S1392       S  0.04846038  0.96148476  0.97789517    -0.25200
H1393       H  0.04301874  0.91154764  0.02094963     0.19700
S1394       S  0.93119748  0.94113860  0.07042559    -0.30900
H1395       H  0.93824006  0.99263100  0.02876379     0.10000
C1396       C  0.95658585  0.01597447  0.96983997     0.03200
C1397       C  0.95366106  0.04785794  0.95519822    -0.13200
C1398       C  0.97608983  0.07746334  0.96049927    -0.08900
C1399       C  0.00131982  0.07482591  0.98172431     0.06700
C1400       C  0.00465146  0.04262176  0.99592672    -0.14000
S1401       S  0.92793837  0.97838808  0.96196635    -0.30900
H1402       H  0.93420481  0.04929730  0.93909454     0.10900
S1403       S  0.02913363  0.11157997  0.99248655    -0.28000
H1404       H  0.02409285  0.04065199  0.01206021     0.08100
H1405       H  0.93501653  0.90377700  0.07278515     0.26600
H1406       H  0.90803776  0.99523924  0.94154042     0.21400
H1407       H  0.00122006  0.13693611  0.99144587     0.26700
H1408       H  0.02594408  0.97816516  0.95900249     0.15500
C1409       C  0.92430750  0.15173336  0.77070527    -0.11800
C1410       C  0.88747717  0.14540146  0.76758384     0.14800
C1411       C  0.86445853  0.15126194  0.78956750     0.01700
C1412       C  0.87872137  0.16319533  0.81401520    -0.16100
C1413       C  0.91575097  0.16784887  0.81751603    -0.10900
C1414       C  0.93865737  0.16285508  0.79535258     0.08400
C1415       C  0.87448299  0.13074441  0.74164919     0.09400
S1416       S  0.81712561  0.14180032  0.78834939    -0.25200
H1417       H  0.86099875  0.16632094  0.83103082     0.19700
S1418       S  0.98632093  0.17006372  0.79730662    -0.30900
H1419       H  0.94208879  0.14741872  0.75387375     0.10000
C1420       C  0.85356679  0.15115878  0.72361691     0.03200
C1421       C  0.84355194  0.13620456  0.69878698    -0.13200
C1422       C  0.85442788  0.10146525  0.69161929    -0.08900
C1423       C  0.87408170  0.08068616  0.71017707     0.06700
C1424       C  0.88411880  0.09557301  0.73481601    -0.14000
S1425       S  0.84177540  0.19695688  0.73140105    -0.30900
H1426       H  0.82905406  0.15227917  0.68428244     0.10900
S1427       S  0.88739544  0.03511775  0.70334514    -0.28000
H1428       H  0.89976857  0.07967003  0.74877612     0.08100
H1429       H  0.98495465  0.19592664  0.81784009     0.26600
H1430       H  0.82120034  0.20336322  0.70819656     0.21400
H1431       H  0.85767555  0.02703146  0.68701982     0.26700
H1432       H  0.81909707  0.11355283  0.76973667     0.15500
C1433       C  0.89693977  0.34612333  0.03021063    -0.11800
C1434       C  0.89760197  0.31141571  0.04085267     0.14800
C1435       C  0.88981465  0.30633947  0.06831878     0.01700
C1436       C  0.88119392  0.33617683  0.08433813    -0.16100
C1437       C  0.88015220  0.37090917  0.07343508    -0.10900
C1438       C  0.88773447  0.37559897  0.04587981     0.08400
C1439       C  0.90704852  0.28201820  0.02214777     0.09400
S1440       S  0.89037434  0.26282150  0.08401043    -0.25200
H1441       H  0.87543114  0.33230909  0.10542974     0.19700
S1442       S  0.88452938  0.41812166  0.02889412    -0.30900
H1443       H  0.90297050  0.35018989  0.00916241     0.10000
C1444       C  0.88533552  0.27497667  0.99956388     0.03200
C1445       C  0.89911521  0.25472354  0.97833640    -0.13200
C1446       C  0.93404234  0.24080645  0.97925239    -0.08900
C1447       C  0.95463487  0.24532281  0.00290878     0.06700
C1448       C  0.94088024  0.26584719  0.02410663    -0.14000
S1449       S  0.84043352  0.29293076  0.99741547    -0.30900
H1450       H  0.88290608  0.25044879  0.96056230     0.10900
S1451       S  0.99960871  0.22846052  0.00639242    -0.28000
H1452       H  0.95764095  0.27132460  0.04142929     0.08100
H1453       H  0.85434335  0.42993444  0.04305820     0.26600
H1454       H  0.83159784  0.27800926  0.97233171     0.21400
H1455       H  0.01041607  0.23908762  0.98059738     0.26700
H1456       H  0.88214289  0.24299668  0.06081355     0.15500
C1457       C  0.06971862  0.31448472  0.87248482    -0.11800
C1458       C  0.05468533  0.34741121  0.88036684     0.14800
C1459       C  0.01920483  0.34790977  0.89016804     0.01700
C1460       C  0.99984983  0.31580777  0.89196419    -0.16100
C1461       C  0.01543968  0.28282758  0.88509679    -0.10900
C1462       C  0.05064490  0.28228871  0.87496595     0.08400
C1463       C  0.07690519  0.38052093  0.87900777     0.09400
S1464       S  0.99788463  0.38819464  0.90228475    -0.25200
H1465       H  0.97310217  0.31630960  0.90028429     0.19700
S1466       S  0.07286660  0.24128004  0.86547227    -0.30900
H1467       H  0.09680574  0.31380876  0.86482750     0.10000
C1468       C  0.10737213  0.38482431  0.89549548     0.03200
C1469       C  0.12635100  0.41723992  0.89492775    -0.13200
C1470       C  0.11531823  0.44607841  0.87866086    -0.08900
C1471       C  0.08556302  0.44120589  0.86143135     0.06700
C1472       C  0.06672856  0.40862754  0.86181123    -0.14000
S1473       S  0.12052933  0.35019595  0.91892843    -0.30900
H1474       H  0.14874662  0.42087242  0.90850417     0.10900
S1475       S  0.07053339  0.47529814  0.83841551    -0.28000
H1476       H  0.04362509  0.40529058  0.84884193     0.08100
H1477       H  0.04164008  0.22276551  0.85793263     0.26600
H1478       H  0.15017160  0.36816313  0.93002540     0.21400
H1479       H  0.10467697  0.48998553  0.83419215     0.26700
H1480       H  0.02905721  0.40378211  0.91303016     0.15500
C1481       C  0.10071754  0.06896768  0.86078637    -0.11800
C1482       C  0.13084605  0.07849409  0.87610379     0.14800
C1483       C  0.12895058  0.10893587  0.89292609     0.01700
C1484       C  0.09704603  0.12849712  0.89453328    -0.16100
C1485       C  0.06622267  0.11807355  0.88024514    -0.10900
C1486       C  0.06864946  0.08849108  0.86249311     0.08400
C1487       C  0.16406885  0.05667242  0.87411782     0.09400
S1488       S  0.16577163  0.12337654  0.91382489    -0.25200
H1489       H  0.09581153  0.15092424  0.90833794     0.19700
S1490       S  0.03224058  0.07480993  0.84101043    -0.30900
H1491       H  0.10224691  0.04615037  0.84736500     0.10000
C1492       C  0.16639245  0.02205687  0.88538801     0.03200
C1493       C  0.19963731  0.00438330  0.88625657    -0.13200
C1494       C  0.23080016  0.02072020  0.87634252    -0.08900
C1495       C  0.22766428  0.05423448  0.86316700     0.06700
C1496       C  0.19455225  0.07188332  0.86244366    -0.14000
S1497       S  0.12774827  0.00165200  0.90076593    -0.30900
H1498       H  0.20178010  0.97880252  0.89637399     0.10900
S1499       S  0.26486191  0.07611701  0.84709932    -0.28000
H1500       H  0.19267698  0.09815058  0.85327178     0.08100
H1501       H  0.01938188  0.10979571  0.83662522     0.26600
H1502       H  0.14459950  0.96960766  0.90871573     0.21400
H1503       H  0.28217859  0.04415639  0.83954480     0.26700
H1504       H  0.17935737  0.08892558  0.91911135     0.15500
loop_ 
_geom_bond_atom_site_label_1 
_geom_bond_atom_site_label_2 
_geom_bond_distance 
_geom_bond_site_symmetry_2 
_ccdc_geom_bond_type 
O1          Cr19   1.969       .  S
O1            C9   1.257       .  A
O2          Cr19   2.000       .  S
O2            C3   1.264       .  A
C3            O4   1.259       .  A
C3         C1446   1.480       .  S
O4          Cr20   1.986       .  S
O5          Cr20   2.019       .  S
O5            C6   1.266       .  A
C6            O7   1.255       .  A
C6         C1398   1.489       .  S
O7          Cr21   1.962       .  S
O8          Cr21   2.016       .  S
O8            C9   1.268       .  A
C9         C1365   1.487       .  S
O10         Cr19   2.020       .  S
O10          C18   1.268       .  A
O11         Cr19   1.984       .  S
O11          C12   1.266       .  A
C12          O13   1.271   1_655  A
C12        C1461   1.477   1_655  S
O13         Cr20   2.018   1_455  S
O14         Cr20   1.975   1_455  S
O14          C15   1.262       .  A
C15          O16   1.269       .  A
C15        C1485   1.489       .  S
O16         Cr21   2.018   1_455  S
O17         Cr21   1.973       .  S
O17          C18   1.258       .  A
C18        C1413   1.478       .  S
Cr19         O22   1.773       .  S
Cr20         O22   1.767       .  S
Cr21         O22   1.766       .  S
O23         Cr41   2.016       .  S
O23          C31   1.268       .  A
O24         Cr41   1.980       .  S
O24          C25   1.255       .  A
C25          O26   1.261       .  A
C25        C1326   1.478       .  S
O26         Cr42   2.007       .  S
O27         Cr42   1.983       .  S
O27          C28   1.261       .  A
C28          O29   1.262       .  A
C28        C1302   1.461       .  S
O29         Cr43   1.993       .  S
O30         Cr43   1.970       .  S
O30          C31   1.259       .  A
C31        C1278   1.487       .  S
O32         Cr41   1.985       .  S
O32          C40   1.261       .  A
O33         Cr41   2.029       .  S
O33          C34   1.272       .  A
C34          O35   1.263       .  A
C34        C1350   1.498       .  S
O35         Cr42   1.972       .  S
O36         Cr42   2.006   1_565  S
O36          C37   1.265       .  A
C37          O38   1.262   1_565  A
C37        C1245   1.486       .  S
O38         Cr43   1.988       .  S
O39         Cr43   1.992       .  S
O39          C40   1.262       .  A
C40        C1422   1.473       .  S
Cr41         O44   1.777       .  S
Cr42         O44   1.774       .  S
Cr43         O44   1.774       .  S
O45         Cr63   1.973       .  S
O45          C53   1.260       .  A
O46         Cr63   1.998       .  S
O46          C47   1.261       .  A
C47          O48   1.260       .  A
C47        C1389   1.467   1_455  S
O48         Cr64   1.989       .  S
O49         Cr64   2.023       .  S
O49          C50   1.267       .  A
C50          O51   1.257       .  A
C50        C1125   1.484       .  S
O51         Cr65   1.977       .  S
O52         Cr65   2.025       .  S
O52          C53   1.269       .  A
C53        C1221   1.499       .  S
O54         Cr63   2.009       .  S
O54          C62   1.266       .  A
O55         Cr63   1.986       .  S
O55          C56   1.266   1_455  A
C56          O57   1.270       .  A
C56        C1173   1.485       .  S
O57         Cr64   2.017   1_655  S
O58         Cr64   1.976   1_655  S
O58          C59   1.260   1_655  A
C59          O60   1.272       .  A
C59        C1149   1.487       .  S
O60         Cr65   2.033       .  S
O61         Cr65   1.995       .  S
O61          C62   1.264       .  A
C62        C1206   1.490       .  S
Cr63         O66   1.774       .  S
Cr64         O66   1.771       .  S
Cr65         O66   1.774       .  S
O67         Cr85   1.971       .  S
O67          C75   1.261       .  A
O68         Cr85   1.970   1_545  S
O68          C69   1.253       .  A
C69          O70   1.260       .  A
C69        C1293   1.474       .  S
O70         Cr86   2.001       .  S
O71         Cr86   2.010   1_565  S
O71          C72   1.265       .  A
C72          O73   1.260       .  A
C72        C1086   1.481       .  S
O73         Cr87   1.988       .  S
O74         Cr87   2.022       .  S
O74          C75   1.273       .  A
C75        C1029   1.495       .  S
O76         Cr85   1.988       .  S
O76          C84   1.256       .  A
O77         Cr85   1.981   1_545  S
O77          C78   1.267       .  A
C78          O79   1.273       .  A
C78        C1053   1.480       .  S
O79         Cr86   2.018       .  S
O80         Cr86   1.964       .  S
O80          C81   1.259       .  A
C81          O82   1.269   1_545  A
C81        C1101   1.479       .  S
O82         Cr87   2.016       .  S
O83         Cr87   2.011       .  S
O83          C84   1.264       .  A
C84        C1197   1.494       .  S
Cr85         O88   1.770       .  S
Cr86         O88   1.775   1_545  S
Cr87         O88   1.776       .  S
O89        Cr107   2.026       .  S
O89          C97   1.272       .  A
O90        Cr107   1.976       .  S
O90          C91   1.257       .  A
C91          O92   1.268       .  A
C91        C1230   1.503       .  S
O92        Cr108   2.021   1_565  S
O93        Cr108   1.994       .  S
O93          C94   1.262       .  A
C94          O95   1.259       .  A
C94         C966   1.473       .  S
O95        Cr109   1.981   1_545  S
O96        Cr109   1.971       .  S
O96          C97   1.259       .  A
C97         C933   1.495       .  S
O98        Cr107   1.989       .  S
O98         C106   1.259       .  A
O99        Cr107   2.023       .  S
O99         C100   1.270   1_565  A
C100        O101   1.259       .  A
C100       C1494   1.488       .  S
O101       Cr108   1.970       .  S
O102       Cr108   2.010       .  S
O102        C103   1.271       .  A
C103        O104   1.266       .  A
C103       C1005   1.500       .  S
O104       Cr109   1.990   1_545  S
O105       Cr109   1.998       .  S
O105        C106   1.260       .  A
C106        C981   1.470       .  S
Cr107       O110   1.773       .  S
Cr108       O110   1.770   1_545  S
Cr109       O110   1.774       .  S
O111       Cr129   1.971       .  S
O111        C119   1.261       .  A
O112       Cr129   2.004       .  S
O112        C113   1.264       .  A
C113        O114   1.259       .  A
C113        C870   1.469       .  S
O114       Cr130   1.984       .  S
O115       Cr130   2.021       .  S
O115        C116   1.265       .  A
C116        O117   1.249       .  A
C116        C909   1.470       .  S
O117       Cr131   1.948       .  S
O118       Cr131   2.024       .  S
O118        C119   1.270       .  A
C119       C1077   1.502       .  S
O120       Cr129   2.016       .  S
O120        C128   1.265       .  A
O121       Cr129   1.982       .  S
O121        C122   1.265       .  A
C122        O123   1.271       .  A
C122        C885   1.474       .  S
O123       Cr130   2.019       .  S
O124       Cr130   1.967       .  S
O124        C125   1.259       .  A
C125        O126   1.272       .  A
C125       C1341   1.489       .  S
O126       Cr131   2.031       .  S
O127       Cr131   1.966       .  S
O127        C128   1.257       .  A
C128        C990   1.486       .  S
Cr129       O132   1.768       .  S
Cr130       O132   1.769       .  S
Cr131       O132   1.762       .  S
O133       Cr151   2.022       .  S
O133        C141   1.270       .  A
O134       Cr151   1.961       .  S
O134        C135   1.254       .  A
C135        O136   1.265       .  A
C135        C957   1.482       .  S
O136       Cr152   2.013       .  S
O137       Cr152   1.982       .  S
O137        C138   1.261       .  A
C138        O139   1.266       .  A
C138       C1374   1.484       .  S
O139       Cr153   2.012       .  S
O140       Cr153   1.979       .  S
O140        C141   1.259       .  A
C141        C846   1.504       .  S
O142       Cr151   1.970       .  S
O142        C150   1.259       .  A
O143       Cr151   2.019       .  S
O143        C144   1.271   1_545  A
C144        O145   1.264       .  A
C144        C798   1.490       .  S
O145       Cr152   1.981   1_565  S
O146       Cr152   2.010       .  S
O146        C147   1.268       .  A
C147        O148   1.269       .  A
C147       C1182   1.504   1_545  S
O148       Cr153   2.001       .  S
O149       Cr153   2.028       .  S
O149        C150   1.268       .  A
C150        C822   1.502       .  S
Cr151       O154   1.765       .  S
Cr152       O154   1.766       .  S
Cr153       O154   1.771       .  S
O155       Cr173   1.973       .  S
O155        C163   1.262       .  A
O156       Cr173   1.981       .  S
O156        C157   1.258       .  A
C157        O158   1.259       .  A
C157        C918   1.457       .  S
O158       Cr174   1.984       .  S
O159       Cr174   2.014       .  S
O159        C160   1.263       .  A
C160        O161   1.257       .  A
C160        C750   1.487       .  S
O161       Cr175   1.983       .  S
O162       Cr175   2.016       .  S
O162        C163   1.269       .  A
C163       C1317   1.484       .  S
O164       Cr173   1.987       .  S
O164        C172   1.262       .  A
O165       Cr173   1.988       .  S
O165        C166   1.266       .  A
C166        O167   1.267       .  A
C166       C1110   1.476       .  S
O167       Cr174   2.004       .  S
O168       Cr174   1.957       .  S
O168        C169   1.257       .  A
C169        O170   1.271       .  A
C169        C774   1.488       .  S
O170       Cr175   2.025       .  S
O171       Cr175   2.006       .  S
O171        C172   1.265       .  A
C172        C813   1.495       .  S
Cr173       O176   1.771       .  S
Cr174       O176   1.771       .  S
Cr175       O176   1.776       .  S
O177       Cr195   2.011       .  S
O177        C185   1.268       .  A
O178       Cr195   1.991       .  S
O178        C179   1.258       .  A
C179        O180   1.264       .  A
C179        C837   1.493       .  S
O180       Cr196   2.015       .  S
O181       Cr196   1.987       .  S
O181        C182   1.261       .  A
C182        O183   1.262       .  A
C182        C645   1.464       .  S
O183       Cr197   1.993       .  S
O184       Cr197   1.971       .  S
O184        C185   1.259       .  A
C185        C702   1.484       .  S
O186       Cr195   1.996       .  S
O186        C194   1.263       .  A
O187       Cr195   2.030       .  S
O187        C188   1.273       .  A
C188        O189   1.262       .  A
C188       C1014   1.488       .  S
O189       Cr196   1.972       .  S
O190       Cr196   2.011       .  S
O190        C191   1.267       .  A
C191        O192   1.265       .  A
C191        C717   1.496       .  S
O192       Cr197   1.991       .  S
O193       Cr197   1.999       .  S
O193        C194   1.263       .  A
C194        C669   1.485       .  S
Cr195       O198   1.779       .  S
Cr196       O198   1.774       .  S
Cr197       O198   1.774       .  S
O199       Cr217   1.971       .  S
O199        C207   1.261       .  A
O200       Cr217   2.014       .  S
O200        C201   1.265       .  A
C201        O202   1.260       .  A
C201        C597   1.478       .  S
O202       Cr218   1.988       .  S
O203       Cr218   2.025       .  S
O203        C204   1.267       .  A
C204        O205   1.252       .  A
C204        C582   1.481       .  S
O205       Cr219   1.957       .  S
O206       Cr219   2.025       .  S
O206        C207   1.271       .  A
C207        C741   1.505       .  S
O208       Cr217   2.031       .  S
O208        C216   1.269       .  A
O209       Cr217   1.986       .  S
O209        C210   1.267       .  A
C210        O211   1.272       .  A
C210        C621   1.480       .  S
O211       Cr218   2.017       .  S
O212       Cr218   1.966       .  S
O212        C213   1.257       .  A
C213        O214   1.272       .  A
C213        C894   1.493       .  S
O214       Cr219   2.029       .  S
O215       Cr219   1.977       .  S
O215        C216   1.258       .  A
C216        C678   1.487       .  S
Cr217       O220   1.774       .  S
Cr218       O220   1.765       .  S
Cr219       O220   1.767       .  S
O221       Cr239   2.005       .  S
O221        C229   1.264       .  A
O222       Cr239   1.973       .  S
O222        C223   1.257       .  A
C223        O224   1.262       .  A
C223        C573   1.472       .  S
O224       Cr240   2.008       .  S
O225       Cr240   1.980       .  S
O225        C226   1.262       .  A
C226        O227   1.268       .  A
C226        C501   1.482       .  S
O227       Cr241   2.011       .  S
O228       Cr241   1.975       .  S
O228        C229   1.259       .  A
C229        C861   1.483       .  S
O230       Cr239   1.963       .  S
O230        C238   1.256       .  A
O231       Cr239   2.005       .  S
O231        C232   1.268       .  A
C232        O233   1.263       .  A
C232        C765   1.478       .  S
O233       Cr240   1.980       .  S
O234       Cr240   1.998       .  S
O234        C235   1.266       .  A
C235        O236   1.266       .  A
C235        C534   1.495       .  S
O236       Cr241   1.998       .  S
O237       Cr241   2.034       .  S
O237        C238   1.271       .  A
C238        C549   1.491       .  S
Cr239       O242   1.766       .  S
Cr240       O242   1.768       .  S
Cr241       O242   1.774       .  S
O243       Cr261   2.001       .  S
O243        C251   1.261       .  A
O244       Cr261   1.961       .  S
O244        C245   1.255       .  A
C245        O246   1.266       .  A
C245        C654   1.480       .  S
O246       Cr262   2.016       .  S
O247       Cr262   1.996       .  S
O247        C248   1.264       .  A
C248        O249   1.265       .  A
C248        C942   1.498       .  S
O249       Cr263   2.010       .  S
O250       Cr263   1.979       .  S
O250        C251   1.260       .  A
C251        C477   1.493       .  S
O252       Cr261   1.963       .  S
O252        C260   1.256       .  A
O253       Cr261   2.004       .  S
O253        C254   1.265       .  A
C254        O255   1.264       .  A
C254        C453   1.486       .  S
O255       Cr262   1.985       .  S
O256       Cr262   2.005       .  S
O256        C257   1.271       .  A
C257        O258   1.268       .  A
C257        C789   1.496       .  S
O258       Cr263   1.991       .  S
O259       Cr263   2.037       .  S
O259        C260   1.271       .  A
C260        C558   1.487       .  S
Cr261       O264   1.766       .  S
Cr262       O264   1.766       .  S
Cr263       O264   1.775       .  S
O265       Cr283   1.966       .  S
O265        C273   1.256       .  A
O266       Cr283   2.008       .  S
O266        C267   1.265       .  A
C267        O268   1.259       .  A
C267        C486   1.478       .  S
O268       Cr284   1.982       .  S
O269       Cr284   2.018       .  S
O269        C270   1.265       .  A
C270        O271   1.251       .  A
C270        C405   1.476       .  S
O271       Cr285   1.948       .  S
O272       Cr285   2.035       .  S
O272        C273   1.274       .  A
C273       C1134   1.507       .  S
O274       Cr283   2.024       .  S
O274        C282   1.268       .  A
O275       Cr283   1.987       .  S
O275        C276   1.266       .  A
C276        O277   1.271       .  A
C276        C726   1.478       .  S
O277       Cr284   2.019       .  S
O278       Cr284   1.968       .  S
O278        C279   1.261       .  A
C279        O280   1.273       .  A
C279       C1470   1.488       .  S
O280       Cr285   2.031       .  S
O281       Cr285   1.974       .  S
O281        C282   1.258       .  A
C282        C438   1.486       .  S
Cr283       O286   1.770       .  S
Cr284       O286   1.769       .  S
Cr285       O286   1.767       .  S
O287       Cr305   2.010       .  S
O287        C295   1.268       .  A
O288       Cr305   1.984       .  S
O288        C289   1.258       .  A
C289        O290   1.262       .  A
C289       C1038   1.486       .  S
O290       Cr306   2.003       .  S
O291       Cr306   1.989       .  S
O291        C292   1.260       .  A
C292        O293   1.260       .  A
C292        C390   1.466       .  S
O293       Cr307   1.987       .  S
O294       Cr307   1.972       .  S
O294        C295   1.260       .  A
C295        C510   1.486       .  S
O296       Cr305   1.993       .  S
O296        C304   1.261       .  A
O297       Cr305   2.018       .  S
O297        C298   1.269       .  A
C298        O299   1.262   1_455  A
C298       C1254   1.482       .  S
O299       Cr306   1.974   1_655  S
O300       Cr306   2.001   1_655  S
O300        C301   1.266       .  A
C301        O302   1.267   1_655  A
C301        C630   1.494       .  S
O302       Cr307   1.998       .  S
O303       Cr307   1.994       .  S
O303        C304   1.261       .  A
C304        C429   1.477       .  S
Cr305       O308   1.781       .  S
Cr306       O308   1.770       .  S
Cr307       O308   1.776       .  S
O309       Cr327   2.007       .  S
O309        C317   1.265       .  A
O310       Cr327   1.960       .  S
O310        C311   1.256       .  A
C311        O312   1.265   1_655  A
C311        C381   1.482       .  S
O312       Cr328   2.014       .  S
O313       Cr328   1.991   1_655  S
O313        C314   1.264       .  A
C314        O315   1.267       .  A
C314       C1269   1.495       .  S
O315       Cr329   2.013       .  S
O316       Cr329   1.983       .  S
O316        C317   1.258       .  A
C317        C606   1.499       .  S
O318       Cr327   1.965       .  S
O318        C326   1.259       .  A
O319       Cr327   2.014   1_455  S
O319        C320   1.267       .  A
C320        O321   1.265       .  A
C320        C525   1.485       .  S
O321       Cr328   1.992       .  S
O322       Cr328   2.003       .  S
O322        C323   1.268   1_455  A
C323        O324   1.266       .  A
C323       C1062   1.480   1_655  S
O324       Cr329   1.992       .  S
O325       Cr329   2.031       .  S
O325        C326   1.271       .  A
C326        C366   1.491       .  S
Cr327       O330   1.764       .  S
Cr328       O330   1.766   1_455  S
Cr329       O330   1.771       .  S
O331       Cr349   1.970       .  S
O331        C339   1.262       .  A
O332       Cr349   1.977       .  S
O332        C333   1.255       .  A
C333        O334   1.258       .  A
C333        C414   1.482       .  S
O334       Cr350   1.995       .  S
O335       Cr350   2.005       .  S
O335        C336   1.263       .  A
C336        O337   1.258       .  A
C336        C693   1.480       .  S
O337       Cr351   1.978       .  S
O338       Cr351   2.025       .  S
O338        C339   1.272       .  A
C339       C1437   1.478       .  S
O340       Cr349   1.989       .  S
O340        C348   1.260       .  A
O341       Cr349   1.991       .  S
O341        C342   1.269       .  A
C342        O343   1.272       .  A
C342       C1158   1.487       .  S
O343       Cr350   2.015       .  S
O344       Cr350   1.962       .  S
O344        C345   1.259       .  A
C345        O346   1.270       .  A
C345        C462   1.482       .  S
O346       Cr351   2.019       .  S
O347       Cr351   1.995       .  S
O347        C348   1.261       .  A
C348        C357   1.487       .  S
Cr349       O352   1.771       .  S
Cr350       O352   1.768       .  S
Cr351       O352   1.779       .  S
C353        C354   1.407       .  A
C353        C358   1.405       .  A
C353        H363   1.084       .  S
C354        C359   1.485       .  S
C354        C355   1.410       .  A
C355        C356   1.396       .  A
C355        S360   1.805       .  S
C356        C357   1.408       .  A
C356        H361   1.084       .  S
C357        C358   1.415       .  A
C358        S362   1.801       .  S
C359        C364   1.408       .  A
C359        C368   1.404       .  A
S360        H376   1.406       .  S
S362        H373   1.407       .  S
C364        C365   1.401       .  A
C364        S369   1.809       .  S
C365        C366   1.409       .  A
C365        H370   1.082       .  S
C366        C367   1.417       .  A
C367        C368   1.405       .  A
C367        S371   1.801       .  S
C368        H372   1.084       .  S
S369        H374   1.407       .  S
S371        H375   1.407       .  S
C377        C378   1.401   1_455  A
C377        C382   1.403       .  A
C377        H387   1.083       .  S
C378        C383   1.470       .  S
C378        C379   1.405       .  A
C379        C380   1.392       .  A
C379        S384   1.805       .  S
C380        C381   1.409       .  A
C380        H385   1.083       .  S
C381        C382   1.416   1_655  A
C382        S386   1.808       .  S
C383        C388   1.406       .  A
C383        C392   1.403   1_655  A
S384        H400   1.405       .  S
S386        H397   1.407       .  S
C388        C389   1.396       .  A
C388        S393   1.808       .  S
C389        C390   1.405   1_655  A
C389        H394   1.083       .  S
C390        C391   1.412       .  A
C391        C392   1.399       .  A
C391        S395   1.804       .  S
C392        H396   1.084       .  S
S393        H398   1.407       .  S
S395        H399   1.405       .  S
C401        C402   1.396       .  A
C401        C406   1.391       .  A
C401        H411   1.085       .  S
C402        C407   1.468   1_456  S
C402        C403   1.411       .  A
C403        C404   1.399       .  A
C403        S408   1.805       .  S
C404        C405   1.407       .  A
C404        H409   1.084       .  S
C405        C406   1.417       .  A
C406        S410   1.798       .  S
C407        C412   1.402       .  A
C407        C416   1.403   1_554  A
S408        H424   1.406   1_455  S
S410        H421   1.405       .  S
C412        C413   1.390       .  A
C412        S417   1.810   1_655  S
C413        C414   1.410       .  A
C413        H418   1.082       .  S
C414        C415   1.416       .  A
C415        C416   1.402   1_554  A
C415        S419   1.800   1_554  S
C416        H420   1.084       .  S
S417        H422   1.407       .  S
S419        H423   1.407   1_556  S
C425        C426   1.403       .  A
C425        C430   1.401       .  A
C425        H435   1.084       .  S
C426        C431   1.487       .  S
C426        C427   1.415       .  A
C427        C428   1.405       .  A
C427        S432   1.804       .  S
C428        C429   1.404       .  A
C428        H433   1.084       .  S
C429        C430   1.411       .  A
C430        S434   1.803       .  S
C431        C436   1.409       .  A
C431        C440   1.403       .  A
S432        H448   1.405       .  S
S434        H445   1.407       .  S
C436        C437   1.407       .  A
C436        S441   1.805       .  S
C437        C438   1.407       .  A
C437        H442   1.083       .  S
C438        C439   1.415       .  A
C439        C440   1.402       .  A
C439        S443   1.803       .  S
C440        H444   1.084       .  S
S441        H446   1.407       .  S
S443        H447   1.407       .  S
C449        C450   1.400       .  A
C449        C454   1.398       .  A
C449        H459   1.084       .  S
C450        C455   1.484       .  S
C450        C451   1.413       .  A
C451        C452   1.401       .  A
C451        S456   1.804       .  S
C452        C453   1.405       .  A
C452        H457   1.084       .  S
C453        C454   1.420       .  A
C454        S458   1.801       .  S
C455        C460   1.411       .  A
C455        C464   1.399       .  A
S456        H472   1.407       .  S
S458        H469   1.405       .  S
C460        C461   1.407       .  A
C460        S465   1.805       .  S
C461        C462   1.406       .  A
C461        H466   1.083       .  S
C462        C463   1.418       .  A
C463        C464   1.397       .  A
C463        S467   1.812       .  S
C464        H468   1.083       .  S
S465        H470   1.407       .  S
S467        H471   1.406       .  S
C473        C474   1.399       .  A
C473        C478   1.401       .  A
C473        H483   1.084       .  S
C474        C479   1.477       .  S
C474        C475   1.410       .  A
C475        C476   1.397       .  A
C475        S480   1.807       .  S
C476        C477   1.409       .  A
C476        H481   1.082       .  S
C477        C478   1.422       .  A
C478        S482   1.801       .  S
C479        C484   1.408   1_554  A
C479        C488   1.402       .  A
S480        H496   1.404       .  S
S482        H493   1.407       .  S
C484        C485   1.400       .  A
C484        S489   1.808       .  S
C485        C486   1.404       .  A
C485        H490   1.082       .  S
C486        C487   1.416       .  A
C487        C488   1.401   1_556  A
C487        S491   1.803   1_556  S
C488        H492   1.084       .  S
S489        H494   1.407       .  S
S491        H495   1.406   1_554  S
C497        C498   1.402       .  A
C497        C502   1.398       .  A
C497        H507   1.084       .  S
C498        C503   1.480       .  S
C498        C499   1.411       .  A
C499        C500   1.402       .  A
C499        S504   1.804       .  S
C500        C501   1.407       .  A
C500        H505   1.083       .  S
C501        C502   1.416       .  A
C502        S506   1.804       .  S
C503        C508   1.408       .  A
C503        C512   1.400       .  A
S504        H520   1.404       .  S
S506        H517   1.407       .  S
C508        C509   1.405       .  A
C508        S513   1.807       .  S
C509        C510   1.408       .  A
C509        H514   1.083       .  S
C510        C511   1.416       .  A
C511        C512   1.403       .  A
C511        S515   1.808       .  S
C512        H516   1.083       .  S
S513        H518   1.407       .  S
S515        H519   1.407       .  S
C521        C522   1.407       .  A
C521        C526   1.406       .  A
C521        H531   1.084       .  S
C522        C527   1.492       .  S
C522        C523   1.414       .  A
C523        C524   1.401       .  A
C523        S528   1.805       .  S
C524        C525   1.405       .  A
C524        H529   1.084       .  S
C525        C526   1.413       .  A
C526        S530   1.802       .  S
C527        C532   1.409       .  A
C527        C536   1.406       .  A
S528        H544   1.406       .  S
S530        H541   1.407       .  S
C532        C533   1.402       .  A
C532        S537   1.809       .  S
C533        C534   1.409       .  A
C533        H538   1.083       .  S
C534        C535   1.418       .  A
C535        C536   1.407       .  A
C535        S539   1.799       .  S
C536        H540   1.084       .  S
S537        H542   1.406       .  S
S539        H543   1.407       .  S
C545        C546   1.399       .  A
C545        C550   1.397       .  A
C545        H555   1.084       .  S
C546        C551   1.485       .  S
C546        C547   1.416       .  A
C547        C548   1.407       .  A
C547        S552   1.806       .  S
C548        C549   1.407       .  A
C548        H553   1.083       .  S
C549        C550   1.420       .  A
C550        S554   1.804       .  S
C551        C556   1.411       .  A
C551        C560   1.397       .  A
S552        H568   1.403       .  S
S554        H565   1.407       .  S
C556        C557   1.412       .  A
C556        S561   1.804       .  S
C557        C558   1.407       .  A
C557        H562   1.083       .  S
C558        C559   1.420       .  A
C559        C560   1.395       .  A
C559        S563   1.804       .  S
C560        H564   1.084       .  S
S561        H566   1.407       .  S
S563        H567   1.402       .  S
C569        C570   1.403       .  A
C569        C574   1.400       .  A
C569        H579   1.084       .  S
C570        C575   1.475       .  S
C570        C571   1.412       .  A
C571        C572   1.398       .  A
C571        S576   1.806       .  S
C572        C573   1.403       .  A
C572        H577   1.084       .  S
C573        C574   1.409       .  A
C574        S578   1.802       .  S
C575        C580   1.408       .  A
C575        C584   1.396       .  A
S576        H592   1.403       .  S
S578        H589   1.407       .  S
C580        C581   1.405       .  A
C580        S585   1.805       .  S
C581        C582   1.404       .  A
C581        H586   1.082       .  S
C582        C583   1.420       .  A
C583        C584   1.399       .  A
C583        S587   1.811       .  S
C584        H588   1.083       .  S
S585        H590   1.407       .  S
S587        H591   1.407       .  S
C593        C594   1.403       .  A
C593        C598   1.399       .  A
C593        H603   1.084       .  S
C594        C599   1.485       .  S
C594        C595   1.413       .  A
C595        C596   1.404       .  A
C595        S600   1.803       .  S
C596        C597   1.405       .  A
C596        H601   1.084       .  S
C597        C598   1.413       .  A
C598        S602   1.802       .  S
C599        C604   1.406       .  A
C599        C608   1.401       .  A
S600        H616   1.405       .  S
S602        H613   1.406       .  S
C604        C605   1.403       .  A
C604        S609   1.807       .  S
C605        C606   1.411       .  A
C605        H610   1.082       .  S
C606        C607   1.424       .  A
C607        C608   1.407       .  A
C607        S611   1.811       .  S
C608        H612   1.083       .  S
S609        H614   1.407       .  S
S611        H615   1.407       .  S
C617        C618   1.408       .  A
C617        C622   1.407       .  A
C617        H627   1.082       .  S
C618        C623   1.500       .  S
C618        C619   1.419       .  A
C619        C620   1.403       .  A
C619        S624   1.804       .  S
C620        C621   1.402       .  A
C620        H625   1.084       .  S
C621        C622   1.409       .  A
C622        S626   1.806       .  S
C623        C628   1.417       .  A
C623        C632   1.403       .  A
S624        H640   1.407       .  S
S626        H637   1.407       .  S
C628        C629   1.412       .  A
C628        S633   1.806       .  S
C629        C630   1.407       .  A
C629        H634   1.083       .  S
C630        C631   1.418       .  A
C631        C632   1.397       .  A
C631        S635   1.805       .  S
C632        H636   1.083       .  S
S633        H638   1.407       .  S
S635        H639   1.408       .  S
C641        C642   1.404       .  A
C641        C646   1.400   1_554  A
C641        H651   1.084       .  S
C642        C647   1.476       .  S
C642        C643   1.412   1_554  A
C643        C644   1.396       .  A
C643        S648   1.806       .  S
C644        C645   1.402       .  A
C644        H649   1.085       .  S
C645        C646   1.411       .  A
C646        S650   1.805       .  S
C647        C652   1.406       .  A
C647        C656   1.403       .  A
S648        H664   1.405       .  S
S650        H661   1.404       .  S
C652        C653   1.399       .  A
C652        S657   1.807       .  S
C653        C654   1.409       .  A
C653        H658   1.083       .  S
C654        C655   1.414       .  A
C655        C656   1.400       .  A
C655        S659   1.802       .  S
C656        H660   1.084   1_554  S
S657        H662   1.407       .  S
S659        H663   1.407       .  S
C665        C666   1.404       .  A
C665        C670   1.403       .  A
C665        H675   1.084       .  S
C666        C671   1.494       .  S
C666        C667   1.416       .  A
C667        C668   1.407       .  A
C667        S672   1.804       .  S
C668        C669   1.405       .  A
C668        H673   1.084       .  S
C669        C670   1.414       .  A
C670        S674   1.803       .  S
C671        C676   1.412       .  A
C671        C680   1.405       .  A
S672        H688   1.405       .  S
S674        H685   1.407       .  S
C676        C677   1.409       .  A
C676        S681   1.806       .  S
C677        C678   1.406       .  A
C677        H682   1.083       .  S
C678        C679   1.415       .  A
C679        C680   1.404       .  A
C679        S683   1.804       .  S
C680        H684   1.084       .  S
S681        H686   1.406       .  S
S683        H687   1.407       .  S
C689        C690   1.403   1_554  A
C689        C694   1.398       .  A
C689        H699   1.084       .  S
C690        C695   1.486       .  S
C690        C691   1.414       .  A
C691        C692   1.404   1_556  A
C691        S696   1.803       .  S
C692        C693   1.405       .  A
C692        H697   1.084       .  S
C693        C694   1.414       .  A
C694        S698   1.803       .  S
C695        C700   1.411       .  A
C695        C704   1.403       .  A
S696        H712   1.406       .  S
S698        H709   1.406       .  S
C700        C701   1.403       .  A
C700        S705   1.807       .  S
C701        C702   1.406       .  A
C701        H706   1.082       .  S
C702        C703   1.416       .  A
C703        C704   1.401       .  A
C703        S707   1.803       .  S
C704        H708   1.084       .  S
S705        H710   1.407       .  S
S707        H711   1.408       .  S
C713        C714   1.402       .  A
C713        C718   1.400       .  A
C713        H723   1.084       .  S
C714        C719   1.493       .  S
C714        C715   1.414       .  A
C715        C716   1.406       .  A
C715        S720   1.803       .  S
C716        C717   1.409       .  A
C716        H721   1.083       .  S
C717        C718   1.421       .  A
C718        S722   1.804       .  S
C719        C724   1.413       .  A
C719        C728   1.404       .  A
S720        H736   1.406       .  S
S722        H733   1.406       .  S
C724        C725   1.408       .  A
C724        S729   1.806       .  S
C725        C726   1.403       .  A
C725        H730   1.083       .  S
C726        C727   1.413       .  A
C727        C728   1.401       .  A
C727        S731   1.802       .  S
C728        H732   1.084       .  S
S729        H734   1.407       .  S
S731        H735   1.404       .  S
C737        C738   1.406       .  A
C737        C742   1.413       .  A
C737        H747   1.083       .  S
C738        C743   1.496       .  S
C738        C739   1.412       .  A
C739        C740   1.399       .  A
C739        S744   1.806       .  S
C740        C741   1.412       .  A
C740        H745   1.084       .  S
C741        C742   1.422       .  A
C742        S746   1.808       .  S
C743        C748   1.414       .  A
C743        C752   1.405       .  A
S744        H760   1.406       .  S
S746        H757   1.406       .  S
C748        C749   1.407       .  A
C748        S753   1.807       .  S
C749        C750   1.406       .  A
C749        H754   1.082       .  S
C750        C751   1.415       .  A
C751        C752   1.404       .  A
C751        S755   1.803       .  S
C752        H756   1.084       .  S
S753        H758   1.407       .  S
S755        H759   1.406       .  S
C761        C762   1.406       .  A
C761        C766   1.403       .  A
C761        H771   1.084       .  S
C762        C767   1.483       .  S
C762        C763   1.412       .  A
C763        C764   1.394       .  A
C763        S768   1.805       .  S
C764        C765   1.405       .  A
C764        H769   1.084       .  S
C765        C766   1.413       .  A
C766        S770   1.803       .  S
C767        C772   1.408       .  A
C767        C776   1.405       .  A
S768        H784   1.406       .  S
S770        H781   1.407       .  S
C772        C773   1.398       .  A
C772        S777   1.809       .  S
C773        C774   1.410       .  A
C773        H778   1.082       .  S
C774        C775   1.415       .  A
C775        C776   1.402       .  A
C775        S779   1.801       .  S
C776        H780   1.084       .  S
S777        H782   1.407       .  S
S779        H783   1.405       .  S
C785        C786   1.406       .  A
C785        C790   1.410       .  A
C785        H795   1.084       .  S
C786        C791   1.485       .  S
C786        C787   1.409       .  A
C787        C788   1.394       .  A
C787        S792   1.806       .  S
C788        C789   1.409       .  A
C788        H793   1.084       .  S
C789        C790   1.419       .  A
C790        S794   1.801       .  S
C791        C796   1.409       .  A
C791        C800   1.403       .  A
S792        H808   1.404       .  S
S794        H805   1.407       .  S
C796        C797   1.404       .  A
C796        S801   1.807       .  S
C797        C798   1.408       .  A
C797        H802   1.083       .  S
C798        C799   1.417       .  A
C799        C800   1.404       .  A
C799        S803   1.803       .  S
C800        H804   1.084       .  S
S801        H806   1.407       .  S
S803        H807   1.407       .  S
C809        C810   1.406       .  A
C809        C814   1.410       .  A
C809        H819   1.083       .  S
C810        C815   1.487       .  S
C810        C811   1.408       .  A
C811        C812   1.396       .  A
C811        S816   1.806       .  S
C812        C813   1.410       .  A
C812        H817   1.084       .  S
C813        C814   1.417       .  A
C814        S818   1.799       .  S
C815        C820   1.408       .  A
C815        C824   1.401       .  A
S816        H832   1.405       .  S
S818        H829   1.407       .  S
C820        C821   1.403       .  A
C820        S825   1.808       .  S
C821        C822   1.411       .  A
C821        H826   1.082       .  S
C822        C823   1.423       .  A
C823        C824   1.406       .  A
C823        S827   1.800       .  S
C824        H828   1.084       .  S
S825        H830   1.406       .  S
S827        H831   1.408       .  S
C833        C834   1.405       .  A
C833        C838   1.403   1_554  A
C833        H843   1.083       .  S
C834        C839   1.498       .  S
C834        C835   1.417       .  A
C835        C836   1.407   1_554  A
C835        S840   1.804       .  S
C836        C837   1.407       .  A
C836        H841   1.084       .  S
C837        C838   1.416       .  A
C838        S842   1.801       .  S
C839        C844   1.413       .  A
C839        C848   1.402       .  A
S840        H856   1.406       .  S
S842        H853   1.403       .  S
C844        C845   1.409       .  A
C844        S849   1.807       .  S
C845        C846   1.410       .  A
C845        H850   1.082       .  S
C846        C847   1.423       .  A
C847        C848   1.403       .  A
C847        S851   1.803       .  S
C848        H852   1.084       .  S
S849        H854   1.407       .  S
S851        H855   1.408       .  S
C857        C858   1.402       .  A
C857        C862   1.402       .  A
C857        H867   1.083       .  S
C858        C863   1.479       .  S
C858        C859   1.412       .  A
C859        C860   1.397       .  A
C859        S864   1.805       .  S
C860        C861   1.406       .  A
C860        H865   1.084       .  S
C861        C862   1.416       .  A
C862        S866   1.803       .  S
C863        C868   1.408       .  A
C863        C872   1.403       .  A
S864        H880   1.405       .  S
S866        H877   1.407       .  S
C868        C869   1.397       .  A
C868        S873   1.802       .  S
C869        C870   1.400       .  A
C869        H874   1.083       .  S
C870        C871   1.416       .  A
C871        C872   1.403       .  A
C871        S875   1.806       .  S
C872        H876   1.084       .  S
S873        H878   1.407       .  S
S875        H879   1.401       .  S
C881        C882   1.404       .  A
C881        C886   1.399       .  A
C881        H891   1.084       .  S
C882        C887   1.489       .  S
C882        C883   1.416       .  A
C883        C884   1.403       .  A
C883        S888   1.804       .  S
C884        C885   1.403       .  A
C884        H889   1.084       .  S
C885        C886   1.412       .  A
C886        S890   1.803       .  S
C887        C892   1.411       .  A
C887        C896   1.399       .  A
S888        H904   1.406       .  S
S890        H901   1.404       .  S
C892        C893   1.408       .  A
C892        S897   1.806       .  S
C893        C894   1.408       .  A
C893        H898   1.083       .  S
C894        C895   1.422       .  A
C895        C896   1.397       .  A
C895        S899   1.802       .  S
C896        H900   1.084       .  S
S897        H902   1.407       .  S
S899        H903   1.408       .  S
C905        C906   1.394       .  A
C905        C910   1.389   1_545  A
C905        H915   1.084       .  S
C906        C911   1.466       .  S
C906        C907   1.414   1_545  A
C907        C908   1.400       .  A
C907        S912   1.805       .  S
C908        C909   1.402       .  A
C908        H913   1.084       .  S
C909        C910   1.418       .  A
C910        S914   1.804       .  S
C911        C916   1.406       .  A
C911        C920   1.403       .  A
S912        H928   1.405   1_565  S
S914        H925   1.404       .  S
C916        C917   1.395       .  A
C916        S921   1.808       .  S
C917        C918   1.403       .  A
C917        H922   1.084       .  S
C918        C919   1.406       .  A
C919        C920   1.401       .  A
C919        S923   1.807       .  S
C920        H924   1.083       .  S
S921        H926   1.407       .  S
S923        H927   1.407       .  S
C929        C930   1.403       .  A
C929        C934   1.408       .  A
C929        H939   1.083       .  S
C930        C935   1.490       .  S
C930        C931   1.413       .  A
C931        C932   1.401       .  A
C931        S936   1.804       .  S
C932        C933   1.406       .  A
C932        H937   1.083       .  S
C933        C934   1.421       .  A
C934        S938   1.809       .  S
C935        C940   1.411       .  A
C935        C944   1.399   1_556  A
S936        H952   1.406       .  S
S938        H949   1.407       .  S
C940        C941   1.411   1_556  A
C940        S945   1.805       .  S
C941        C942   1.411       .  A
C941        H946   1.082       .  S
C942        C943   1.422       .  A
C943        C944   1.397       .  A
C943        S947   1.802       .  S
C944        H948   1.084       .  S
S945        H950   1.407       .  S
S947        H951   1.406       .  S
C953        C954   1.401       .  A
C953        C958   1.398       .  A
C953        H963   1.083       .  S
C954        C959   1.480   1_554  S
C954        C955   1.413   1_545  A
C955        C956   1.399   1_565  A
C955        S960   1.805       .  S
C956        C957   1.406       .  A
C956        H961   1.084   1_545  S
C957        C958   1.416       .  A
C958        S962   1.807       .  S
C959        C964   1.414   1_556  A
C959        C968   1.398       .  A
S960        H976   1.406   1_554  S
S962        H973   1.406       .  S
C964        C965   1.407   1_554  A
C964        S969   1.806   1_545  S
C965        C966   1.403       .  A
C965        H970   1.082   1_545  S
C966        C967   1.415       .  A
C967        C968   1.390       .  A
C967        S971   1.802       .  S
C968        H972   1.084       .  S
S969        H974   1.407       .  S
S971        H975   1.406       .  S
C977        C978   1.400       .  A
C977        C982   1.398       .  A
C977        H987   1.084       .  S
C978        C983   1.478       .  S
C978        C979   1.415       .  A
C979        C980   1.402       .  A
C979        S984   1.805       .  S
C980        C981   1.401       .  A
C980        H985   1.084       .  S
C981        C982   1.411       .  A
C982        S986   1.802       .  S
C983        C988   1.407       .  A
C983        C992   1.399       .  A
S984       H1000   1.403       .  S
S986        H997   1.406       .  S
C988        C989   1.402       .  A
C988        S993   1.807       .  S
C989        C990   1.407       .  A
C989        H994   1.083       .  S
C990        C991   1.420       .  A
C991        C992   1.400       .  A
C991        S995   1.801       .  S
C992        H996   1.084       .  S
S993        H998   1.407       .  S
S995        H999   1.406       .  S
C1001      C1002   1.405       .  A
C1001      C1006   1.409       .  A
C1001      H1011   1.084       .  S
C1002      C1007   1.491       .  S
C1002      C1003   1.412       .  A
C1003      C1004   1.397       .  A
C1003      S1008   1.805       .  S
C1004      C1005   1.409       .  A
C1004      H1009   1.084       .  S
C1005      C1006   1.421       .  A
C1006      S1010   1.800       .  S
C1007      C1012   1.413       .  A
C1007      C1016   1.404       .  A
S1008      H1024   1.406       .  S
S1010      H1021   1.408       .  S
C1012      C1013   1.407       .  A
C1012      S1017   1.806       .  S
C1013      C1014   1.405       .  A
C1013      H1018   1.081       .  S
C1014      C1015   1.416       .  A
C1015      C1016   1.402       .  A
C1015      S1019   1.804       .  S
C1016      H1020   1.084       .  S
S1017      H1022   1.407       .  S
S1019      H1023   1.407       .  S
C1025      C1026   1.401       .  A
C1025      C1030   1.404       .  A
C1025      H1035   1.083       .  S
C1026      C1031   1.485       .  S
C1026      C1027   1.411       .  A
C1027      C1028   1.401       .  A
C1027      S1032   1.805       .  S
C1028      C1029   1.410       .  A
C1028      H1033   1.083       .  S
C1029      C1030   1.423       .  A
C1030      S1034   1.812       .  S
C1031      C1036   1.411       .  A
C1031      C1040   1.402       .  A
S1032      H1048   1.405       .  S
S1034      H1045   1.407       .  S
C1036      C1037   1.405       .  A
C1036      S1041   1.806       .  S
C1037      C1038   1.406       .  A
C1037      H1042   1.082       .  S
C1038      C1039   1.416       .  A
C1039      C1040   1.400       .  A
C1039      S1043   1.801       .  S
C1040      H1044   1.084       .  S
S1041      H1046   1.407       .  S
S1043      H1047   1.403       .  S
C1049      C1050   1.403       .  A
C1049      C1054   1.401       .  A
C1049      H1059   1.084       .  S
C1050      C1055   1.483       .  S
C1050      C1051   1.412       .  A
C1051      C1052   1.402       .  A
C1051      S1056   1.803       .  S
C1052      C1053   1.405       .  A
C1052      H1057   1.084       .  S
C1053      C1054   1.413       .  A
C1054      S1058   1.803       .  S
C1055      C1060   1.408       .  A
C1055      C1064   1.406       .  A
S1056      H1072   1.405       .  S
S1058      H1069   1.407       .  S
C1060      C1061   1.397       .  A
C1060      S1065   1.810       .  S
C1061      C1062   1.404       .  A
C1061      H1066   1.083       .  S
C1062      C1063   1.415       .  A
C1063      C1064   1.408       .  A
C1063      S1067   1.803       .  S
C1064      H1068   1.083       .  S
S1065      H1070   1.407       .  S
S1067      H1071   1.405       .  S
C1073      C1074   1.404       .  A
C1073      C1078   1.411       .  A
C1073      H1083   1.082       .  S
C1074      C1079   1.491       .  S
C1074      C1075   1.411       .  A
C1075      C1076   1.399       .  A
C1075      S1080   1.805       .  S
C1076      C1077   1.411       .  A
C1076      H1081   1.083       .  S
C1077      C1078   1.422       .  A
C1078      S1082   1.808       .  S
C1079      C1084   1.413       .  A
C1079      C1088   1.403       .  A
S1080      H1096   1.405       .  S
S1082      H1093   1.406       .  S
C1084      C1085   1.409       .  A
C1084      S1089   1.805       .  S
C1085      C1086   1.405       .  A
C1085      H1090   1.083       .  S
C1086      C1087   1.413       .  A
C1087      C1088   1.401       .  A
C1087      S1091   1.801       .  S
C1088      H1092   1.084       .  S
S1089      H1094   1.407       .  S
S1091      H1095   1.405       .  S
C1097      C1098   1.407       .  A
C1097      C1102   1.407       .  A
C1097      H1107   1.083       .  S
C1098      C1103   1.489       .  S
C1098      C1099   1.413       .  A
C1099      C1100   1.395       .  A
C1099      S1104   1.805       .  S
C1100      C1101   1.403       .  A
C1100      H1105   1.084       .  S
C1101      C1102   1.413       .  A
C1102      S1106   1.802   1_545  S
C1103      C1108   1.412       .  A
C1103      C1112   1.405       .  A
S1104      H1120   1.407       .  S
S1106      H1117   1.406       .  S
C1108      C1109   1.407       .  A
C1108      S1113   1.806       .  S
C1109      C1110   1.404       .  A
C1109      H1114   1.083       .  S
C1110      C1111   1.412       .  A
C1111      C1112   1.399       .  A
C1111      S1115   1.804       .  S
C1112      H1116   1.084       .  S
S1113      H1118   1.407       .  S
S1115      H1119   1.406       .  S
C1121      C1122   1.405       .  A
C1121      C1126   1.403   1_556  A
C1121      H1131   1.084       .  S
C1122      C1127   1.496       .  S
C1122      C1123   1.417   1_556  A
C1123      C1124   1.404       .  A
C1123      S1128   1.800       .  S
C1124      C1125   1.404       .  A
C1124      H1129   1.084       .  S
C1125      C1126   1.415       .  A
C1126      S1130   1.805       .  S
C1127      C1132   1.411       .  A
C1127      C1136   1.400       .  A
S1128      H1144   1.406       .  S
S1130      H1141   1.407       .  S
C1132      C1133   1.412       .  A
C1132      S1137   1.806       .  S
C1133      C1134   1.410       .  A
C1133      H1138   1.082       .  S
C1134      C1135   1.428       .  A
C1135      C1136   1.406       .  A
C1135      S1139   1.813       .  S
C1136      H1140   1.083       .  S
S1137      H1142   1.406       .  S
S1139      H1143   1.406       .  S
C1145      C1146   1.406       .  A
C1145      C1150   1.406       .  A
C1145      H1155   1.084       .  S
C1146      C1151   1.495       .  S
C1146      C1147   1.417       .  A
C1147      C1148   1.403   1_655  A
C1147      S1152   1.806   1_655  S
C1148      C1149   1.405       .  A
C1148      H1153   1.084       .  S
C1149      C1150   1.415   1_455  A
C1150      S1154   1.803       .  S
C1151      C1156   1.414       .  A
C1151      C1160   1.404       .  A
S1152      H1168   1.406   1_455  S
S1154      H1165   1.407       .  S
C1156      C1157   1.410       .  A
C1156      S1161   1.806   1_655  S
C1157      C1158   1.406       .  A
C1157      H1162   1.083       .  S
C1158      C1159   1.415       .  A
C1159      C1160   1.401       .  A
C1159      S1163   1.804       .  S
C1160      H1164   1.084       .  S
S1161      H1166   1.407       .  S
S1163      H1167   1.407       .  S
C1169      C1170   1.406       .  A
C1169      C1174   1.408       .  A
C1169      H1179   1.082       .  S
C1170      C1175   1.498       .  S
C1170      C1171   1.417       .  A
C1171      C1172   1.403       .  A
C1171      S1176   1.804       .  S
C1172      C1173   1.403       .  A
C1172      H1177   1.084       .  S
C1173      C1174   1.414       .  A
C1174      S1178   1.807       .  S
C1175      C1180   1.413       .  A
C1175      C1184   1.400       .  A
S1176      H1192   1.407       .  S
S1178      H1189   1.407   1_565  S
C1180      C1181   1.414   1_565  A
C1180      S1185   1.806   1_565  S
C1181      C1182   1.412   1_545  A
C1181      H1186   1.082       .  S
C1182      C1183   1.423       .  A
C1183      C1184   1.397       .  A
C1183      S1187   1.803       .  S
C1184      H1188   1.084       .  S
S1185      H1190   1.407       .  S
S1187      H1191   1.408       .  S
C1193      C1194   1.398       .  A
C1193      C1198   1.396       .  A
C1193      H1203   1.084       .  S
C1194      C1199   1.488       .  S
C1194      C1195   1.415       .  A
C1195      C1196   1.409       .  A
C1195      S1200   1.802       .  S
C1196      C1197   1.407       .  A
C1196      H1201   1.083       .  S
C1197      C1198   1.421       .  A
C1198      S1202   1.802       .  S
C1199      C1204   1.413       .  A
C1199      C1208   1.399       .  A
S1200      H1216   1.405       .  S
S1202      H1213   1.405       .  S
C1204      C1205   1.410       .  A
C1204      S1209   1.805       .  S
C1205      C1206   1.406       .  A
C1205      H1210   1.083       .  S
C1206      C1207   1.419       .  A
C1207      C1208   1.400       .  A
C1207      S1211   1.802       .  S
C1208      H1212   1.084       .  S
S1209      H1214   1.407       .  S
S1211      H1215   1.404       .  S
C1217      C1218   1.404       .  A
C1217      C1222   1.407       .  A
C1217      H1227   1.084       .  S
C1218      C1223   1.490       .  S
C1218      C1219   1.411       .  A
C1219      C1220   1.399       .  A
C1219      S1224   1.804       .  S
C1220      C1221   1.410       .  A
C1220      H1225   1.083       .  S
C1221      C1222   1.419       .  A
C1222      S1226   1.798       .  S
C1223      C1228   1.409       .  A
C1223      C1232   1.400   1_554  A
S1224      H1240   1.405   1_554  S
S1226      H1237   1.407       .  S
C1228      C1229   1.407   1_554  A
C1228      S1233   1.806       .  S
C1229      C1230   1.411       .  A
C1229      H1234   1.082       .  S
C1230      C1231   1.425       .  A
C1231      C1232   1.407       .  A
C1231      S1235   1.810       .  S
C1232      H1236   1.083       .  S
S1233      H1238   1.407   1_565  S
S1235      H1239   1.407       .  S
C1241      C1242   1.403       .  A
C1241      C1246   1.398       .  A
C1241      H1251   1.084       .  S
C1242      C1247   1.490       .  S
C1242      C1243   1.414       .  A
C1243      C1244   1.405       .  A
C1243      S1248   1.803       .  S
C1244      C1245   1.406       .  A
C1244      H1249   1.083       .  S
C1245      C1246   1.415       .  A
C1246      S1250   1.802       .  S
C1247      C1252   1.412       .  A
C1247      C1256   1.404       .  A
S1248      H1264   1.406   1_655  S
S1250      H1261   1.405       .  S
C1252      C1253   1.405       .  A
C1252      S1257   1.807       .  S
C1253      C1254   1.405   1_655  A
C1253      H1258   1.083       .  S
C1254      C1255   1.414       .  A
C1255      C1256   1.401   1_455  A
C1255      S1259   1.801       .  S
C1256      H1260   1.084   1_655  S
S1257      H1262   1.407       .  S
S1259      H1263   1.407       .  S
C1265      C1266   1.402       .  A
C1265      C1270   1.405       .  A
C1265      H1275   1.083       .  S
C1266      C1271   1.486       .  S
C1266      C1267   1.413       .  A
C1267      C1268   1.405       .  A
C1267      S1272   1.807       .  S
C1268      C1269   1.408       .  A
C1268      H1273   1.084       .  S
C1269      C1270   1.419       .  A
C1270      S1274   1.810       .  S
C1271      C1276   1.410       .  A
C1271      C1280   1.402       .  A
S1272      H1288   1.402       .  S
S1274      H1285   1.407       .  S
C1276      C1277   1.406       .  A
C1276      S1281   1.806       .  S
C1277      C1278   1.406       .  A
C1277      H1282   1.083       .  S
C1278      C1279   1.416       .  A
C1279      C1280   1.407       .  A
C1279      S1283   1.807       .  S
C1280      H1284   1.083       .  S
S1281      H1286   1.407       .  S
S1283      H1287   1.407       .  S
C1289      C1290   1.408       .  A
C1289      C1294   1.401       .  A
C1289      H1299   1.084       .  S
C1290      C1295   1.479   1_455  S
C1290      C1291   1.410       .  A
C1291      C1292   1.391       .  A
C1291      S1296   1.806   1_455  S
C1292      C1293   1.407       .  A
C1292      H1297   1.085       .  S
C1293      C1294   1.411       .  A
C1294      S1298   1.801   1_545  S
C1295      C1300   1.413   1_545  A
C1295      C1304   1.402       .  A
S1296      H1312   1.407       .  S
S1298      H1309   1.408       .  S
C1300      C1301   1.401       .  A
C1300      S1305   1.808       .  S
C1301      C1302   1.400   1_565  A
C1301      H1306   1.083       .  S
C1302      C1303   1.409       .  A
C1303      C1304   1.394       .  A
C1303      S1307   1.801       .  S
C1304      H1308   1.084       .  S
S1305      H1310   1.407       .  S
S1307      H1311   1.405       .  S
C1313      C1314   1.405       .  A
C1313      C1318   1.405       .  A
C1313      H1323   1.082       .  S
C1314      C1319   1.492       .  S
C1314      C1315   1.415       .  A
C1315      C1316   1.399       .  A
C1315      S1320   1.804       .  S
C1316      C1317   1.404       .  A
C1316      H1321   1.084       .  S
C1317      C1318   1.416       .  A
C1318      S1322   1.806       .  S
C1319      C1324   1.415       .  A
C1319      C1328   1.405       .  A
S1320      H1336   1.407       .  S
S1322      H1333   1.407       .  S
C1324      C1325   1.406       .  A
C1324      S1329   1.807       .  S
C1325      C1326   1.404       .  A
C1325      H1330   1.083       .  S
C1326      C1327   1.411       .  A
C1327      C1328   1.397       .  A
C1327      S1331   1.799       .  S
C1328      H1332   1.084       .  S
S1329      H1334   1.407       .  S
S1331      H1335   1.406       .  S
C1337      C1338   1.402       .  A
C1337      C1342   1.398       .  A
C1337      H1347   1.084       .  S
C1338      C1343   1.492       .  S
C1338      C1339   1.415       .  A
C1339      C1340   1.405       .  A
C1339      S1344   1.803       .  S
C1340      C1341   1.406       .  A
C1340      H1345   1.084       .  S
C1341      C1342   1.419       .  A
C1342      S1346   1.801       .  S
C1343      C1348   1.410       .  A
C1343      C1352   1.403       .  A
S1344      H1360   1.406       .  S
S1346      H1357   1.408       .  S
C1348      C1349   1.405       .  A
C1348      S1353   1.808       .  S
C1349      C1350   1.410   1_565  A
C1349      H1354   1.080       .  S
C1350      C1351   1.420       .  A
C1351      C1352   1.402   1_545  A
C1351      S1355   1.800       .  S
C1352      H1356   1.083   1_565  S
S1353      H1358   1.407       .  S
S1355      H1359   1.408       .  S
C1361      C1362   1.402       .  A
C1361      C1366   1.404       .  A
C1361      H1371   1.083       .  S
C1362      C1367   1.484       .  S
C1362      C1363   1.412       .  A
C1363      C1364   1.400       .  A
C1363      S1368   1.804       .  S
C1364      C1365   1.407       .  A
C1364      H1369   1.084       .  S
C1365      C1366   1.417       .  A
C1366      S1370   1.809       .  S
C1367      C1372   1.411   1_556  A
C1367      C1376   1.402       .  A
S1368      H1384   1.405       .  S
S1370      H1381   1.407       .  S
C1372      C1373   1.404       .  A
C1372      S1377   1.808       .  S
C1373      C1374   1.406       .  A
C1373      H1378   1.083       .  S
C1374      C1375   1.417       .  A
C1375      C1376   1.401   1_554  A
C1375      S1379   1.804       .  S
C1376      H1380   1.084       .  S
S1377      H1382   1.407       .  S
S1379      H1383   1.407       .  S
C1385      C1386   1.401       .  A
C1385      C1390   1.397       .  A
C1385      H1395   1.084       .  S
C1386      C1391   1.477   1_564  S
C1386      C1387   1.412   1_655  A
C1387      C1388   1.401       .  A
C1387      S1392   1.803   1_554  S
C1388      C1389   1.402   1_455  A
C1388      H1393   1.084       .  S
C1389      C1390   1.412       .  A
C1390      S1394   1.804       .  S
C1391      C1396   1.405       .  A
C1391      C1400   1.401   1_655  A
S1392      H1408   1.405       .  S
S1394      H1405   1.406       .  S
C1396      C1397   1.400       .  A
C1396      S1401   1.807   1_545  S
C1397      C1398   1.411       .  A
C1397      H1402   1.082       .  S
C1398      C1399   1.418   1_655  A
C1399      C1400   1.400       .  A
C1399      S1403   1.802       .  S
C1400      H1404   1.084   1_556  S
S1401      H1406   1.407       .  S
S1403      H1407   1.408       .  S
C1409      C1410   1.405       .  A
C1409      C1414   1.401       .  A
C1409      H1419   1.084       .  S
C1410      C1415   1.483       .  S
C1410      C1411   1.413       .  A
C1411      C1412   1.401       .  A
C1411      S1416   1.805       .  S
C1412      C1413   1.405       .  A
C1412      H1417   1.084       .  S
C1413      C1414   1.412       .  A
C1414      S1418   1.804       .  S
C1415      C1420   1.412       .  A
C1415      C1424   1.402       .  A
S1416      H1432   1.405       .  S
S1418      H1429   1.407       .  S
C1420      C1421   1.407       .  A
C1420      S1425   1.806       .  S
C1421      C1422   1.404       .  A
C1421      H1426   1.083       .  S
C1422      C1423   1.411       .  A
C1423      C1424   1.398       .  A
C1423      S1427   1.803       .  S
C1424      H1428   1.084       .  S
S1425      H1430   1.407       .  S
S1427      H1431   1.407       .  S
C1433      C1434   1.400       .  A
C1433      C1438   1.392       .  A
C1433      H1443   1.085       .  S
C1434      C1439   1.482       .  S
C1434      C1435   1.414       .  A
C1435      C1436   1.407       .  A
C1435      S1440   1.803       .  S
C1436      C1437   1.406       .  A
C1436      H1441   1.084       .  S
C1437      C1438   1.415       .  A
C1438      S1442   1.802       .  S
C1439      C1444   1.410   1_554  A
C1439      C1448   1.403       .  A
S1440      H1456   1.405       .  S
S1442      H1453   1.403       .  S
C1444      C1445   1.399       .  A
C1444      S1449   1.808       .  S
C1445      C1446   1.404       .  A
C1445      H1450   1.083       .  S
C1446      C1447   1.416   1_556  A
C1447      C1448   1.403       .  A
C1447      S1451   1.801       .  S
C1448      H1452   1.084       .  S
S1449      H1454   1.406       .  S
S1451      H1455   1.407   1_654  S
C1457      C1458   1.406       .  A
C1457      C1462   1.403       .  A
C1457      H1467   1.083       .  S
C1458      C1463   1.491       .  S
C1458      C1459   1.415       .  A
C1459      C1460   1.403   1_455  A
C1459      S1464   1.805   1_455  S
C1460      C1461   1.403   1_655  A
C1460      H1465   1.084       .  S
C1461      C1462   1.411       .  A
C1462      S1466   1.803       .  S
C1463      C1468   1.411       .  A
C1463      C1472   1.406       .  A
S1464      H1480   1.406   1_655  S
S1466      H1477   1.406       .  S
C1468      C1469   1.403       .  A
C1468      S1473   1.809       .  S
C1469      C1470   1.408       .  A
C1469      H1474   1.083       .  S
C1470      C1471   1.414       .  A
C1471      C1472   1.405       .  A
C1471      S1475   1.801       .  S
C1472      H1476   1.084       .  S
S1473      H1478   1.407       .  S
S1475      H1479   1.406       .  S
C1481      C1482   1.404       .  A
C1481      C1486   1.404       .  A
C1481      H1491   1.084       .  S
C1482      C1487   1.487       .  S
C1482      C1483   1.413       .  A
C1483      C1484   1.399       .  A
C1483      S1488   1.805       .  S
C1484      C1485   1.407       .  A
C1484      H1489   1.084       .  S
C1485      C1486   1.417       .  A
C1486      S1490   1.802       .  S
C1487      C1492   1.411       .  A
C1487      C1496   1.402       .  A
S1488      H1504   1.406       .  S
S1490      H1501   1.407       .  S
C1492      C1493   1.406       .  A
C1492      S1497   1.807       .  S
C1493      C1494   1.407       .  A
C1493      H1498   1.082   1_545  S
C1494      C1495   1.417       .  A
C1495      C1496   1.401       .  A
C1495      S1499   1.804       .  S
C1496      H1500   1.084       .  S
S1497      H1502   1.407   1_545  S
S1499      H1503   1.407       .  S
