geometry optimzed in LAMMPS
_audit_creation_date              2020-12-01 
_audit_creation_method            'lammps2cif' 
_symmetry_space_group_name_H-M    'P1' 
_symmetry_Int_Tables_number       1 
_symmetry_cell_setting            triclinic 
loop_ 
_symmetry_equiv_pos_as_xyz 
  x,y,z 
_cell_length_a                    26.10307862 
_cell_length_b                    26.102903393153696 
_cell_length_c                    33.678825652622955 
_cell_angle_alpha                 89.9998785423881 
_cell_angle_beta                  90.00070468780697 
_cell_angle_gamma                 89.99910935825237 
loop_ 
_atom_site_label 
_atom_site_type_symbol 
_atom_site_fract_x 
_atom_site_fract_y 
_atom_site_fract_z 
_atom_site_charge 
O1          O  0.47857069  0.13298270  0.40917859    -0.77600
C2          C  0.62888110  0.17124876  0.42762807     0.83400
O3          O  0.51192237  0.19601202  0.28057550    -0.78700
O4          O  0.67676084  0.10029227  0.31968109    -0.80200
O5          O  0.55470354  0.98191023  0.38199552    -0.80000
O6          O  0.44880807  0.05511778  0.39891005    -0.78600
Zn7        Zn  0.53486036  0.15270611  0.37668761     1.55700
O8          O  0.63459663  0.01306287  0.38660258    -0.80000
Cd9        Cd  0.50977961  0.03868859  0.35738378     1.59700
Cd10       Cd  0.55179692  0.12341559  0.28928330     1.59600
O11         O  0.48758133  0.00794404  0.30285801    -0.80000
O12         O  0.55682357  0.09887392  0.34649594    -1.90500
Cd13       Cd  0.62917168  0.08718595  0.36684124     1.59900
O14         O  0.52142639  0.06069701  0.25708008    -0.80000
O15         O  0.65612016  0.13470399  0.41434483    -0.78600
C16         C  0.50233271  0.22473701  0.31043760     0.83900
C17         C  0.44709522  0.09791005  0.41735830     0.83600
O18         O  0.58479148  0.17910936  0.41345261    -0.77600
C19         C  0.60182057  0.97744533  0.39136005     0.84400
O20         O  0.51182917  0.20883670  0.34505021    -0.77700
C21         C  0.49811735  0.01912485  0.26676183     0.84500
C22         C  0.67099129  0.12359918  0.28672880     0.84800
O23         O  0.62739097  0.13624789  0.27246611    -0.80100
O24         O  0.39628381  0.82239012  0.08854170    -0.77600
C25         C  0.53400030  0.90357251  0.08461597     0.83400
O26         O  0.46920049  0.80551665  0.22142046    -0.78700
O27         O  0.49352693  0.99357170  0.19911766    -0.80200
O28         O  0.34650670  0.98843964  0.11538723    -0.80000
O29         O  0.32496850  0.86681584  0.08764761    -0.78600
Zn30       Zn  0.44623201  0.84879081  0.12529982     1.55700
O31         O  0.42640467  0.01958551  0.11996858    -0.80000
Cd32       Cd  0.35193907  0.91432441  0.13514816     1.59700
Cd33       Cd  0.42931803  0.87810046  0.21270207     1.59600
O34         O  0.30436107  0.90121683  0.18230661    -0.80000
O35         O  0.42428745  0.90263293  0.15548766    -1.90500
Cd36       Cd  0.47133083  0.96281433  0.14459262     1.59900
O37         O  0.35372908  0.86524286  0.22951417    -0.80000
O38         O  0.53229762  0.94636517  0.10306518    -0.78600
C39         C  0.47877390  0.77678053  0.19156247     0.83900
C40         C  0.35219536  0.83026175  0.07436594     0.83600
O41         O  0.50252026  0.86850408  0.09279846    -0.77600
C42         C  0.37928400  0.02405074  0.11061358     0.84400
O43         O  0.46926414  0.79266830  0.15694809    -0.77700
C44         C  0.31013002  0.87789209  0.21525048     0.84500
C45         C  0.48298771  0.98239658  0.23521470     0.84800
O46         O  0.45967775  0.94082619  0.24489924    -0.80100
O47         O  0.60828922  0.73875648  0.03421394    -0.77600
C48         C  0.57006025  0.88909271  0.05261412     0.83400
O49         O  0.54527767  0.77210648  0.40558536    -0.78700
O50         O  0.64109376  0.93692652  0.44467521    -0.80200
O51         O  0.75937734  0.81482126  0.00701776    -0.80000
O52         O  0.68613778  0.70895507  0.02393323    -0.78600
Zn53       Zn  0.58858153  0.79504025  0.00170086     1.55700
O54         O  0.72824363  0.89472386  0.01160939    -0.80000
Cd55       Cd  0.70258642  0.76991623  0.48240036     1.59700
Cd56       Cd  0.61788093  0.81197348  0.41429190     1.59600
O57         O  0.73334423  0.74772917  0.42787553    -0.80000
O58         O  0.64241800  0.81698168  0.47150531    -1.90500
Cd59       Cd  0.65413429  0.88932910  0.49183846     1.59900
O60         O  0.68061209  0.78160834  0.38209618    -0.80000
O61         O  0.60661473  0.91631626  0.03932896    -0.78600
C62         C  0.51655416  0.76251487  0.43544837     0.83900
C63         C  0.64335329  0.70726875  0.04239352     0.83600
O64         O  0.56218963  0.84500070  0.03844626    -0.77600
C65         C  0.76385116  0.86194034  0.01637422     0.84400
O66         O  0.53245518  0.77200941  0.47006103    -0.77700
C67         C  0.72218057  0.75829139  0.39178026     0.84500
C68         C  0.61776090  0.93117153  0.41173346     0.84800
O69         O  0.60506895  0.88757788  0.39748110    -0.80100
O70         O  0.91891095  0.65649151  0.21353284    -0.77600
C71         C  0.83777023  0.79421344  0.20963437     0.83400
O72         O  0.93583103  0.72936691  0.34641654    -0.78700
O73         O  0.74776037  0.75374403  0.32414096    -0.80200
O74         O  0.75285124  0.60673765  0.24042866    -0.80000
O75         O  0.87445872  0.58519550  0.21262075    -0.78600
Zn76       Zn  0.89252654  0.70642223  0.25030634     1.55700
O77         O  0.72172695  0.68664536  0.24500961    -0.80000
Cd78       Cd  0.82698116  0.61215121  0.26014945     1.59700
Cd79       Cd  0.86322256  0.68950610  0.33771818     1.59600
O80         O  0.84009157  0.56455581  0.30729487    -0.80000
O81         O  0.83868761  0.68448920  0.28050301    -1.90500
Cd82       Cd  0.77852003  0.73155379  0.26961755     1.59900
O83         O  0.87604108  0.61390655  0.35452433    -0.80000
O84         O  0.79497995  0.79251712  0.22808733    -0.78600
C85         C  0.96455944  0.73892989  0.31655060     0.83900
C86         C  0.91101877  0.61241657  0.19934175     0.83600
O87         O  0.87283406  0.76272580  0.21781237    -0.77600
C88         C  0.71724419  0.63952284  0.23566633     0.84400
O89         O  0.94865671  0.72942315  0.28194163    -0.77700
C90         C  0.86339099  0.57031330  0.34025003     0.84500
C91         C  0.75892408  0.74318306  0.36023618     0.84800
O92         O  0.80049340  0.71986764  0.36991963    -0.80100
O93         O  0.08479825  0.17911042  0.33848160    -0.77600
C94         C  0.94708742  0.09792170  0.33455755     0.83400
O95         O  0.01190027  0.19599058  0.47135729    -0.78700
O96         O  0.98754761  0.00793652  0.44907755    -0.80200
O97         O  0.13455430  0.01304166  0.36533347    -0.80000
O98         O  0.15610701  0.13467411  0.33757884    -0.78600
Zn99       Zn  0.03485307  0.15270597  0.37523928     1.55700
O100        O  0.05466039  0.98189156  0.36994106    -0.80000
Cd101      Cd  0.12914028  0.08716348  0.38508199     1.59700
Cd102      Cd  0.05177708  0.12339863  0.46264068     1.59600
O103        O  0.17673239  0.10025204  0.43223978    -0.80000
O104        O  0.05679625  0.09886203  0.40542799    -1.90500
Cd105      Cd  0.00974242  0.03868200  0.39454575     1.59900
O106        O  0.12737252  0.13623218  0.47944832    -0.80000
O107        O  0.94878296  0.05513111  0.35301054    -0.78600
C108        C  0.00231482  0.22472253  0.44149836     0.83900
C109        C  0.12888372  0.17123532  0.32430267     0.83600
O110        O  0.97856992  0.13298784  0.34273900    -0.77600
C111        C  0.10177886  0.97742359  0.36058175     0.84400
O112        O  0.01181646  0.20883037  0.40688405    -0.77700
C113        C  0.17096902  0.12356954  0.46518736     0.84500
C114        C  0.99810570  0.01910923  0.48517231     0.84800
O115        O  0.02142426  0.06067763  0.99484958    -0.80100
O116        O  0.00254799  0.86848001  0.15915376    -0.77600
C117        C  0.85224413  0.83026587  0.17762477     0.83400
O118        O  0.96918934  0.80549774  0.03053704    -0.78700
O119        O  0.80437019  0.90119501  0.06969255    -0.80200
O120        O  0.92644990  0.01959305  0.13196253    -0.80000
O121        O  0.03233273  0.94633896  0.14888832    -0.78600
Zn122      Zn  0.94625264  0.84877664  0.12666030     1.55700
O123        O  0.84655370  0.98844643  0.13656040    -0.80000
Cd124      Cd  0.97136951  0.96280101  0.10735384     1.59700
Cd125      Cd  0.92931680  0.87808973  0.03925688     1.59600
O126        O  0.99355698  0.99354671  0.05281869    -0.80000
O127        O  0.92431285  0.90262381  0.09647303    -1.90500
Cd128      Cd  0.85197677  0.91431928  0.11683224     1.59900
O129        O  0.95966600  0.94081307  0.00704721    -0.80000
O130        O  0.82502730  0.86683491  0.16435484    -0.78600
C131        C  0.97876845  0.77676456  0.06039641     0.83900
C132        C  0.03403118  0.90354448  0.16733715     0.83600
O133        O  0.89631919  0.82237337  0.16343178    -0.77600
C134        C  0.87932895  0.02406328  0.14131606     0.84400
O135        O  0.96926946  0.79265767  0.09501019    -0.77700
C136        C  0.98299091  0.98237821  0.01672430     0.84500
C137        C  0.81012398  0.87788651  0.03674058     0.84800
O138        O  0.85371718  0.86524489  0.02246232    -0.80100
O139        O  0.06219758  0.84497500  0.21352199    -0.77600
C140        C  0.14336627  0.70724878  0.20958013     0.83400
O141        O  0.04530207  0.77208120  0.34640160    -0.78700
O142        O  0.23335138  0.74770682  0.32410943    -0.80200
O143        O  0.22825300  0.89471000  0.24038560    -0.80000
O144        O  0.10664636  0.91627544  0.21262517    -0.78600
Zn145      Zn  0.08858985  0.79501520  0.25027699     1.55700
O146        O  0.25939739  0.81481076  0.24496927    -0.80000
Cd147      Cd  0.15414086  0.88929657  0.26013135     1.59700
Cd148      Cd  0.11789268  0.81195314  0.33768263     1.59600
O149        O  0.14106255  0.93689812  0.30727977    -0.80000
O150        O  0.14243128  0.81695287  0.28046890    -1.90500
Cd151      Cd  0.20260600  0.76989393  0.26957769     1.59900
O152        O  0.10505407  0.88755461  0.35448335    -0.80000
O153        O  0.18615546  0.70893813  0.22803588    -0.78600
C154        C  0.01657333  0.76249287  0.31654162     0.83900
C155        C  0.07008353  0.88906024  0.19934443     0.83600
O156        O  0.10830020  0.73873099  0.21776637    -0.77600
C157        C  0.26386529  0.86193330  0.23561982     0.84400
O158        O  0.03246860  0.77198725  0.28192690    -0.77700
C159        C  0.11772825  0.93114685  0.34022016     0.84500
C160        C  0.22218565  0.75827713  0.36020316     0.84800
O161        O  0.18062044  0.78160086  0.36988279    -0.80100
O162        O  0.37279078  0.76272432  0.03418084    -0.77600
C163        C  0.41100956  0.61241871  0.05264800     0.83400
O164        O  0.43581495  0.72936824  0.40558154    -0.78700
O165        O  0.34008155  0.56454252  0.44469028    -0.80200
O166        O  0.22170204  0.68661675  0.00696442    -0.80000
O167        O  0.29492939  0.79249772  0.02390993    -0.78600
Zn168      Zn  0.39250330  0.70642928  0.00168943     1.55700
O169        O  0.25284225  0.60671616  0.01155868    -0.80000
Cd170      Cd  0.27849274  0.73153561  0.48237284     1.59700
Cd171      Cd  0.36321319  0.68949896  0.41428188     1.59600
O172        O  0.24774824  0.75372890  0.42784566    -0.80000
O173        O  0.33867075  0.68448026  0.47149295    -1.90500
Cd174      Cd  0.32697224  0.61213683  0.49183978     1.59900
O175        O  0.30049199  0.71985543  0.38207429    -0.80000
O176        O  0.37445831  0.58518813  0.03936532    -0.78600
C177        C  0.46454096  0.73894669  0.43544602     0.83900
C178        C  0.33772085  0.79420336  0.04236109     0.83600
O179        O  0.41888885  0.65649904  0.03846241    -0.77600
C180        C  0.21722724  0.63949515  0.01631094     0.84400
O181        O  0.44863923  0.72944550  0.47005690    -0.77700
C182        C  0.25892108  0.74316950  0.39175209     0.84500
C183        C  0.36338066  0.57030649  0.41173582     0.84800
O184        O  0.37603351  0.61390297  0.39746940    -0.80100
O185        O  0.10829055  0.23878032  0.28412135    -0.77600
C186        C  0.07007488  0.38909670  0.30257920     0.83400
O187        O  0.04528073  0.27212449  0.15552071    -0.78700
O188        O  0.14099545  0.43695341  0.19462094    -0.80200
O189        O  0.25937886  0.31489909  0.25694582    -0.80000
O190        O  0.18615293  0.20900834  0.27385451    -0.78600
Zn191      Zn  0.08858672  0.29508113  0.25162860     1.55700
O192        O  0.22824534  0.39480387  0.26151907    -0.80000
Cd193      Cd  0.20259960  0.26998003  0.23232985     1.59700
Cd194      Cd  0.11787922  0.31199534  0.16422187     1.59600
O195        O  0.23335015  0.24778232  0.17780874    -0.80000
O196        O  0.14242167  0.31702836  0.22143489    -1.90500
Cd197      Cd  0.15411908  0.38937456  0.24177701     1.61500
O198        O  0.18060062  0.28162563  0.13202575    -0.80000
O199        O  0.10662323  0.41632882  0.28929434    -0.78600
C200        C  0.01655198  0.26255837  0.18538501     0.83900
C201        C  0.14335943  0.20729910  0.29230140     0.83600
O202        O  0.06220029  0.34501344  0.28839772    -0.77600
C203        C  0.26385320  0.36202116  0.26629303     0.84400
O204        O  0.03245197  0.27206838  0.21999481    -0.77700
C205        C  0.22217296  0.25831913  0.14171211     0.84500
C206        C  0.11768686  0.43118402  0.16167027     0.84800
O207        O  0.10504222  0.38758555  0.14740366    -0.80100
O208        O  0.41888812  0.15648122  0.46352065    -0.77600
C209        C  0.33770714  0.29420512  0.45957374     0.83400
O210        O  0.43578892  0.22938106  0.09638207    -0.78700
O211        O  0.24773029  0.25373475  0.07407281    -0.80200
O212        O  0.25284331  0.10672939  0.49033726    -0.80000
O213        O  0.37448120  0.08515342  0.46264159    -0.78600
Zn214      Zn  0.39249461  0.20644080  0.50026524     1.55700
O215        O  0.22170138  0.18662858  0.49492913    -0.80000
Cd216      Cd  0.32694871  0.11213569  0.01012389     1.59700
Cd217      Cd  0.36319588  0.18950808  0.08766453     1.59600
O218        O  0.34000091  0.06455004  0.05729386    -0.80000
O219        O  0.33865756  0.18448729  0.03045271    -1.90500
Cd220      Cd  0.27848130  0.23153896  0.01955191     1.59900
O221        O  0.37601901  0.11391322  0.10448249    -0.80000
O222        O  0.29491855  0.29250569  0.47802628    -0.78600
C223        C  0.46451718  0.23897568  0.06652340     0.83900
C224        C  0.41102892  0.11238531  0.44935591     0.83600
O225        O  0.37277670  0.26272422  0.46775559    -0.77600
C226        C  0.21723471  0.13951109  0.48556671     0.84400
O227        O  0.44862346  0.22947927  0.03190826    -0.77700
C228        C  0.36333596  0.07031577  0.09023405     0.84500
C229        C  0.25890428  0.24319228  0.11016915     0.84800
O230        O  0.30047336  0.21988013  0.11985575    -0.80100
O231        O  0.58479221  0.67909795  0.08857692    -0.77600
C232        C  0.44706154  0.59795461  0.08466008     0.83400
O233        O  0.51191344  0.69604720  0.22144294    -0.78700
O234        O  0.48754668  0.50797036  0.19915140    -0.80200
O235        O  0.63453860  0.51305618  0.11545008    -0.80000
O236        O  0.65610700  0.63467142  0.08769776    -0.78600
Zn237      Zn  0.53484657  0.65272176  0.12533716     1.55700
O238        O  0.55462984  0.48193773  0.12001590    -0.80000
Cd239      Cd  0.62913203  0.58717282  0.13520553     1.59700
Cd240      Cd  0.55177593  0.62343888  0.21275096     1.59600
O241        O  0.67672245  0.60024966  0.18236088    -0.80000
O242        O  0.55678937  0.59889348  0.15553895    -1.90500
Cd243      Cd  0.50973069  0.53872679  0.14463803     1.59900
O244        O  0.62737601  0.63625810  0.22956456    -0.80000
O245        O  0.44875905  0.55516899  0.10311776    -0.78600
C246        C  0.50234013  0.72476786  0.19157404     0.83900
C247        C  0.62888008  0.67122030  0.07440531     0.83600
O248        O  0.47854712  0.63302115  0.09283604    -0.77600
C249        C  0.60175088  0.47745674  0.11066993     0.84400
O250        O  0.51184020  0.70885827  0.15696587    -0.77700
C251        C  0.67096826  0.62357977  0.21530321     0.84500
C252        C  0.49809831  0.51913585  0.23524643     0.84800
O253        O  0.52140536  0.56070658  0.24493743    -0.80100
O254        O  0.50252187  0.36850365  0.40918524    -0.77600
C255        C  0.35218118  0.33026561  0.42757188     0.83400
O256        O  0.46918160  0.30547290  0.28056669    -0.78700
O257        O  0.30435306  0.40129238  0.31961469    -0.80200
O258        O  0.42643536  0.51956405  0.38200699    -0.80000
O259        O  0.53230434  0.44635843  0.39890747    -0.78600
Zn260      Zn  0.44623740  0.34879158  0.37667206     1.55700
O261        O  0.34652749  0.48844250  0.38657253    -0.80000
Cd262      Cd  0.47133869  0.46278729  0.35738387     1.59700
Cd263      Cd  0.42931340  0.37807897  0.28926264     1.59600
O264        O  0.49353014  0.49355628  0.30287698    -0.80000
O265        O  0.42428491  0.40261825  0.34647324    -1.90500
Cd266      Cd  0.35193073  0.41433462  0.36678956     1.59900
O267        O  0.45968904  0.44081527  0.25708691    -0.80000
O268        O  0.32494499  0.36680503  0.41427442    -0.78600
C269        C  0.47876416  0.27675067  0.31043294     0.83900
C270        C  0.53400193  0.40357394  0.41736516     0.83600
O271        O  0.39628025  0.32240845  0.41341496    -0.77600
C272        C  0.37931581  0.52404129  0.39135562     0.84400
O273        O  0.46926451  0.29265604  0.34504301    -0.77700
C274        C  0.48298800  0.48238920  0.26678069     0.84500
C275        C  0.31012013  0.37796146  0.28667343     0.84800
O276        O  0.35371823  0.36527084  0.27242932    -0.80100
O277        O  0.87280954  0.26274498  0.28415389    -0.77600
C278        C  0.91103161  0.11240328  0.30255396     0.83400
O279        O  0.93581180  0.22940732  0.15552708    -0.78700
O280        O  0.84003050  0.06457949  0.19461651    -0.80200
O281        O  0.72172807  0.18666223  0.25699172    -0.80000
O282        O  0.79495400  0.29253318  0.27388071    -0.78600
Zn283      Zn  0.89251731  0.20645870  0.25164127     1.55700
O284        O  0.75285434  0.10675545  0.26155825    -0.80000
Cd285      Cd  0.77850852  0.23156726  0.23235856     1.59700
Cd286      Cd  0.86321758  0.18953190  0.16423714     1.59600
O287        O  0.74774548  0.25375662  0.17784318    -0.80000
O288        O  0.83867970  0.18451459  0.22145017    -1.90500
Cd289      Cd  0.82696148  0.11216664  0.24177826     1.59900
O290        O  0.80047940  0.21990015  0.13205451    -0.80000
O291        O  0.87447732  0.08518078  0.28926799    -0.78600
C292        C  0.96454026  0.23898976  0.18538890     0.83900
C293        C  0.83774147  0.29422764  0.29233557     0.83600
O294        O  0.91890468  0.15649536  0.28838650    -0.77600
C295        C  0.71725384  0.13954167  0.26634380     0.84400
O296        O  0.94864435  0.22948796  0.22000155    -0.77700
C297        C  0.75890986  0.24320944  0.14174660     0.84500
C298        C  0.86337499  0.07033745  0.16168042     0.84800
O299        O  0.87605558  0.11393257  0.14742535    -0.80100
O300        O  0.56218807  0.34502337  0.46354829    -0.77600
C301        C  0.64334707  0.20731257  0.45963023     0.83400
O302        O  0.54525106  0.27212043  0.09640368    -0.78700
O303        O  0.73333794  0.24779561  0.07411318    -0.80200
O304        O  0.72823123  0.39481272  0.49041656    -0.80000
O305        O  0.60659698  0.41634863  0.46266555    -0.78600
Zn306      Zn  0.58857019  0.29508650  0.50030727     1.55700
O307        O  0.75935134  0.31490277  0.49498188    -0.80000
Cd308      Cd  0.65410598  0.38938977  0.01017351     1.59700
Cd309      Cd  0.61785454  0.31199857  0.08771594     1.59600
O310        O  0.64100330  0.43696434  0.05733909    -0.80000
O311        O  0.64239889  0.31703961  0.03050534    -1.90500
Cd312      Cd  0.70257363  0.26999247  0.01960204     1.59900
O313        O  0.60502971  0.38759229  0.10454397    -0.80000
O314        O  0.68613669  0.20902122  0.47808148    -0.78600
C315        C  0.51652746  0.26255071  0.06653556     0.83900
C316        C  0.57005492  0.38911162  0.44937522     0.83600
O317        O  0.60827584  0.23879222  0.46780748    -0.77600
C318        C  0.76383281  0.36202399  0.48563645     0.84400
O319        O  0.53243150  0.27206433  0.03192829    -0.77700
C320        C  0.61769035  0.43119265  0.09028763     0.84500
C321        C  0.72216559  0.25832834  0.11021027     0.84800
O322        O  0.68058902  0.28162493  0.11990199    -0.80100
O323        O  0.97854937  0.63301523  0.15914576    -0.77600
C324        C  0.12888828  0.67120522  0.17756500     0.83400
O325        O  0.01190042  0.69602542  0.03052234    -0.78700
O326        O  0.17670553  0.60021657  0.06961035    -0.80200
O327        O  0.05461651  0.48192719  0.13195247    -0.80000
O328        O  0.94875096  0.55516616  0.14886355    -0.78600
Zn329      Zn  0.03484343  0.65271336  0.12663644     1.55700
O330        O  0.13452499  0.51304769  0.13651681    -0.80000
Cd331      Cd  0.00971251  0.53871652  0.10733422     1.59700
Cd332      Cd  0.05176167  0.62341941  0.03922181     1.59600
O333        O  0.98752706  0.50795574  0.05281769    -0.80000
O334        O  0.05677470  0.59888058  0.09643501    -1.90500
Cd335      Cd  0.12911867  0.58715879  0.11676586     1.59900
O336        O  0.02139836  0.56068601  0.00703415    -0.80000
O337        O  0.15610913  0.63465287  0.16427169    -0.78600
C338        C  0.00233057  0.72475006  0.06038907     0.83900
C339        C  0.94706253  0.59795056  0.16732428     0.83600
O340        O  0.08480022  0.67908858  0.16339360    -0.77600
C341        C  0.10173924  0.47744766  0.14129511     0.84400
O342        O  0.01183324  0.70884455  0.09499883    -0.77700
C343        C  0.99808755  0.51911703  0.01672299     0.84500
C344        C  0.17095153  0.62354994  0.03666991     0.84800
O345        O  0.12736033  0.63623614  0.02241050    -0.80100
O346        O  0.89630231  0.32241231  0.33851240    -0.77600
C347        C  0.03402254  0.40356042  0.33459080     0.83400
O348        O  0.96916097  0.30545343  0.47137758    -0.78700
O349        O  0.99353998  0.49353473  0.44909076    -0.80200
O350        O  0.84654185  0.48844063  0.36539010    -0.80000
O351        O  0.82497350  0.36681828  0.33764155    -0.78600
Zn352      Zn  0.94624579  0.34878792  0.37527131     1.55700
O353        O  0.92645003  0.51956137  0.36996505    -0.80000
Cd354      Cd  0.85194167  0.41432478  0.38514654     1.59700
Cd355      Cd  0.92930131  0.37806763  0.46268665     1.59600
O356        O  0.80434494  0.40126894  0.43230750    -0.80000
O357        O  0.92429089  0.40260978  0.40547486    -1.90500
Cd358      Cd  0.97135463  0.46277523  0.39457610     1.59900
O359        O  0.85369943  0.36527214  0.47951140    -0.80000
O360        O  0.03232297  0.44634535  0.35304903    -0.78600
C361        C  0.97874788  0.27673690  0.44150861     0.83900
C362        C  0.85221028  0.33027922  0.32434502     0.83600
O363        O  0.00254038  0.36849195  0.34276812    -0.77600
C364        C  0.87932934  0.52404230  0.36061915     0.84400
O365        O  0.96925693  0.29265008  0.40689945    -0.77700
C366        C  0.81010395  0.37795485  0.46525676     0.84500
C367        C  0.98298358  0.48236985  0.48518520     0.84800
O368        O  0.95967560  0.44079886  0.99487324    -0.80100
O369        O  0.47857089  0.13298259  0.90917858    -0.77600
C370        C  0.62888113  0.17124882  0.92762812     0.83400
O371        O  0.51192242  0.19601195  0.78057556    -0.78700
O372        O  0.67676094  0.10029236  0.81968105    -0.80200
O373        O  0.55470367  0.98191008  0.88199548    -0.80000
O374        O  0.44880804  0.05511780  0.89890993    -0.78600
Zn375      Zn  0.53486030  0.15270626  0.87668757     1.55700
O376        O  0.63459678  0.01306273  0.88660277    -0.80000
Cd377      Cd  0.50977985  0.03868842  0.85738372     1.59700
Cd378      Cd  0.55179716  0.12341543  0.78928350     1.59600
O379        O  0.48758151  0.00794405  0.80285802    -0.80000
O380        O  0.55682383  0.09887393  0.84649614    -1.90500
Cd381      Cd  0.62917194  0.08718575  0.86684142     1.59900
O382        O  0.52142674  0.06069695  0.75708020    -0.80000
O383        O  0.65612013  0.13470396  0.91434486    -0.78600
C384        C  0.50233278  0.22473704  0.81043764     0.83900
C385        C  0.44709534  0.09791003  0.91735830     0.83600
O386        O  0.58479147  0.17910950  0.91345270    -0.77600
C387        C  0.60182068  0.97744521  0.89136011     0.84400
O388        O  0.51182918  0.20883675  0.84505023    -0.77700
C389        C  0.49811751  0.01912488  0.76676187     0.84500
C390        C  0.67099135  0.12359924  0.78672873     0.84800
O391        O  0.62739100  0.13624794  0.77246607    -0.80100
O392        O  0.39628374  0.82239019  0.58854179    -0.77600
C393        C  0.53400024  0.90357239  0.58461597     0.83400
O394        O  0.46920074  0.80551680  0.72142045    -0.78700
O395        O  0.49352691  0.99357192  0.69911768    -0.80200
O396        O  0.34650662  0.98843972  0.61538717    -0.80000
O397        O  0.32496841  0.86681580  0.58764764    -0.78600
Zn398      Zn  0.44623191  0.84879096  0.62529977     1.55700
O399        O  0.42640461  0.01958558  0.61996877    -0.80000
Cd400      Cd  0.35193897  0.91432456  0.63514832     1.59700
Cd401      Cd  0.42931793  0.87810060  0.71270199     1.59600
O402        O  0.30436112  0.90121683  0.68230668    -0.80000
O403        O  0.42428743  0.90263313  0.65548762    -1.90500
Cd404      Cd  0.47133103  0.96281449  0.64459279     1.59900
O405        O  0.35372903  0.86524267  0.72951417    -0.80000
O406        O  0.53229752  0.94636513  0.60306512    -0.78600
C407        C  0.47877402  0.77678064  0.69156244     0.83900
C408        C  0.35219533  0.83026174  0.57436601     0.83600
O409        O  0.50252018  0.86850398  0.59279845    -0.77600
C410        C  0.37928397  0.02405078  0.61061359     0.84400
O411        O  0.46926410  0.79266844  0.65694810    -0.77700
C412        C  0.31013001  0.87789205  0.71525052     0.84500
C413        C  0.48298768  0.98239676  0.73521470     0.84800
O414        O  0.45967763  0.94082637  0.74489918    -0.80100
O415        O  0.60828910  0.73875641  0.53421385    -0.77600
C416        C  0.57006015  0.88909255  0.55261410     0.83400
O417        O  0.54527762  0.77210642  0.90558545    -0.78700
O418        O  0.64109394  0.93692649  0.94467519    -0.80200
O419        O  0.75937724  0.81482120  0.50701787    -0.80000
O420        O  0.68613765  0.70895504  0.52393309    -0.78600
Zn421      Zn  0.58858139  0.79504035  0.50170077     1.55700
O422        O  0.72824346  0.89472372  0.51160954    -0.80000
Cd423      Cd  0.70258665  0.76991607  0.98240052     1.59700
Cd424      Cd  0.61788084  0.81197360  0.91429208     1.59600
O425        O  0.73334428  0.74772917  0.92787557    -0.80000
O426        O  0.64241824  0.81698176  0.97150540    -1.90500
Cd427      Cd  0.65413453  0.88932926  0.99183862     1.59900
O428        O  0.68061206  0.78160843  0.88209629    -0.80000
O429        O  0.60661460  0.91631606  0.53932887    -0.78600
C430        C  0.51655417  0.76251478  0.93544847     0.83900
C431        C  0.64335321  0.70726870  0.54239343     0.83600
O432        O  0.56218948  0.84500056  0.53844623    -0.77600
C433        C  0.76385110  0.86194028  0.51637432     0.84400
O434        O  0.53245530  0.77200923  0.97006113    -0.77700
C435        C  0.72218059  0.75829144  0.89178031     0.84500
C436        C  0.61776101  0.93117145  0.91173346     0.84800
O437        O  0.60506911  0.88757782  0.89748108    -0.80100
O438        O  0.91891086  0.65649146  0.71353293    -0.77600
C439        C  0.83777027  0.79421350  0.70963428     0.83400
O440        O  0.93583094  0.72936672  0.84641647    -0.78700
O441        O  0.74776037  0.75374420  0.82414099    -0.80200
O442        O  0.75285120  0.60673774  0.74042857    -0.80000
O443        O  0.87445862  0.58519548  0.71262074    -0.78600
Zn444      Zn  0.89252642  0.70642207  0.75030628     1.55700
O445        O  0.72172688  0.68664544  0.74500953    -0.80000
Cd446      Cd  0.82698106  0.61215131  0.76014937     1.59700
Cd447      Cd  0.86322247  0.68950588  0.83771834     1.59600
O448        O  0.84009144  0.56455576  0.80729482    -0.80000
O449        O  0.83868749  0.68448916  0.78050302    -1.90500
Cd450      Cd  0.77851993  0.73155394  0.76961748     1.59900
O451        O  0.87604123  0.61390634  0.85452424    -0.80000
O452        O  0.79497997  0.79251717  0.72808721    -0.78600
C453        C  0.96455935  0.73892970  0.81655052     0.83900
C454        C  0.91101871  0.61241655  0.69934180     0.83600
O455        O  0.87283412  0.76272586  0.71781230    -0.77600
C456        C  0.71724415  0.63952291  0.73566625     0.84400
O457        O  0.94865662  0.72942293  0.78194155    -0.77700
C458        C  0.86339097  0.57031314  0.84024995     0.84500
C459        C  0.75892406  0.74318312  0.86023617     0.84800
O460        O  0.80049330  0.71986749  0.86991962    -0.80100
O461        O  0.08479817  0.17911059  0.83848152    -0.77600
C462        C  0.94708731  0.09792161  0.83455753     0.83400
O463        O  0.01190047  0.19599078  0.97135729    -0.78700
O464        O  0.98754779  0.00793660  0.94907760    -0.80200
O465        O  0.13455443  0.01304154  0.86533365    -0.80000
O466        O  0.15610695  0.13467422  0.83757878    -0.78600
Zn467      Zn  0.03485298  0.15270610  0.87523921     1.55700
O468        O  0.05466046  0.98189146  0.86994109    -0.80000
Cd469      Cd  0.12914050  0.08716361  0.88508191     1.59700
Cd470      Cd  0.05177699  0.12339875  0.96264061     1.59600
O471        O  0.17673245  0.10025223  0.93223967    -0.80000
O472        O  0.05679641  0.09886202  0.90542791    -1.90500
Cd473      Cd  0.00974235  0.03868212  0.89454590     1.59900
O474        O  0.12737248  0.13623208  0.97944828    -0.80000
O475        O  0.94878294  0.05513103  0.85301051    -0.78600
C476        C  0.00231489  0.22472262  0.94149833     0.83900
C477        C  0.12888364  0.17123543  0.82430263     0.83600
O478        O  0.97856976  0.13298784  0.84273896    -0.77600
C479        C  0.10177897  0.97742346  0.86058184     0.84400
O480        O  0.01181639  0.20883040  0.90688404    -0.77700
C481        C  0.17096902  0.12356960  0.96518728     0.84500
C482        C  0.99810565  0.01910927  0.98517235     0.84800
O483        O  0.02142441  0.06067751  0.49484943    -0.80100
O484        O  0.00254805  0.86848017  0.65915386    -0.77600
C485        C  0.85224422  0.83026595  0.67762471     0.83400
O486        O  0.96918932  0.80549748  0.53053695    -0.78700
O487        O  0.80437025  0.90119515  0.56969244    -0.80200
O488        O  0.92644991  0.01959309  0.63196239    -0.80000
O489        O  0.03233295  0.94633905  0.64888826    -0.78600
Zn490      Zn  0.94625288  0.84877677  0.62666046     1.55700
O491        O  0.84655378  0.98844629  0.63656056    -0.80000
Cd492      Cd  0.97136972  0.96280113  0.60735377     1.59700
Cd493      Cd  0.92931704  0.87808953  0.53925681     1.59600
O494        O  0.99355702  0.99354692  0.55281873    -0.80000
O495        O  0.92431292  0.90262373  0.59647298    -1.90500
Cd496      Cd  0.85197669  0.91431910  0.61683216     1.59900
O497        O  0.95966625  0.94081303  0.50704732    -0.80000
O498        O  0.82502741  0.86683502  0.66435481    -0.78600
C499        C  0.97876864  0.77676452  0.56039638     0.83900
C500        C  0.03403127  0.90354460  0.66733717     0.83600
O501        O  0.89631928  0.82237346  0.66343172    -0.77600
C502        C  0.87932899  0.02406324  0.64131605     0.84400
O503        O  0.96926980  0.79265780  0.59501015    -0.77700
C504        C  0.98299104  0.98237823  0.51672432     0.84500
C505        C  0.81012403  0.87788653  0.53674053     0.84800
O506        O  0.85371728  0.86524477  0.52246231    -0.80100
O507        O  0.06219760  0.84497490  0.71352190    -0.77600
C508        C  0.14336628  0.70724867  0.70958012     0.83400
O509        O  0.04530207  0.77208097  0.84640150    -0.78700
O510        O  0.23335151  0.74770663  0.82410943    -0.80200
O511        O  0.22825295  0.89471013  0.74038552    -0.80000
O512        O  0.10664636  0.91627538  0.71262524    -0.78600
Zn513      Zn  0.08859004  0.79501503  0.75027691     1.55700
O514        O  0.25939727  0.81481090  0.74496940    -0.80000
Cd515      Cd  0.15414106  0.88929638  0.76013150     1.59700
Cd516      Cd  0.11789288  0.81195295  0.83768255     1.59600
O517        O  0.14106256  0.93689800  0.80727974    -0.80000
O518        O  0.14243131  0.81695265  0.78046885    -1.90500
Cd519      Cd  0.20260592  0.76989373  0.76957765     1.59900
O520        O  0.10505408  0.88755448  0.85448329    -0.80000
O521        O  0.18615532  0.70893790  0.72803601    -0.78600
C522        C  0.01657324  0.76249278  0.81654154     0.83900
C523        C  0.07008355  0.88906021  0.69934442     0.83600
O524        O  0.10830020  0.73873098  0.71776624    -0.77600
C525        C  0.26386522  0.86193339  0.73561984     0.84400
O526        O  0.03246851  0.77198728  0.78192682    -0.77700
C527        C  0.11772834  0.93114674  0.84022017     0.84500
C528        C  0.22218578  0.75827702  0.86020315     0.84800
O529        O  0.18062059  0.78160085  0.86988273    -0.80100
O530        O  0.37279096  0.76272436  0.53418097    -0.77600
C531        C  0.41100952  0.61241880  0.55264819     0.83400
O532        O  0.43581519  0.72936799  0.90558151    -0.78700
O533        O  0.34008143  0.56454241  0.94469039    -0.80200
O534        O  0.22170208  0.68661685  0.50696438    -0.80000
O535        O  0.29492943  0.79249759  0.52390996    -0.78600
Zn536      Zn  0.39250352  0.70642913  0.50168962     1.55700
O537        O  0.25284224  0.60671621  0.51155859    -0.80000
Cd538      Cd  0.27849295  0.73153541  0.98237301     1.59700
Cd539      Cd  0.36321342  0.68949876  0.91428180     1.59600
O540        O  0.24774830  0.75372865  0.92784568    -0.80000
O541        O  0.33867089  0.68448017  0.97149283    -1.90500
Cd542      Cd  0.32697216  0.61213694  0.99183971     1.59900
O543        O  0.30049204  0.71985521  0.88207425    -0.80000
O544        O  0.37445820  0.58518830  0.53936551    -0.78600
C545        C  0.46454099  0.73894666  0.93544607     0.83900
C546        C  0.33772088  0.79420333  0.54236114     0.83600
O547        O  0.41888901  0.65649908  0.53846260    -0.77600
C548        C  0.21722726  0.63949524  0.51631090     0.84400
O549        O  0.44863907  0.72944564  0.97005692    -0.77700
C550        C  0.25892113  0.74316932  0.89175210     0.84500
C551        C  0.36338058  0.57030639  0.91173594     0.84800
O552        O  0.37603346  0.61390283  0.89746952    -0.80100
O553        O  0.10829067  0.23878038  0.78412128    -0.77600
C554        C  0.07007490  0.38909665  0.80257932     0.83400
O555        O  0.04528086  0.27212426  0.65552062    -0.78700
O556        O  0.14099530  0.43695350  0.69462100    -0.80200
O557        O  0.25937901  0.31489900  0.75694576    -0.80000
O558        O  0.18615301  0.20900818  0.77385449    -0.78600
Zn559      Zn  0.08858662  0.29508125  0.75162856     1.55700
O560        O  0.22824540  0.39480379  0.76151899    -0.80000
Cd561      Cd  0.20259952  0.26997985  0.73232981     1.59700
Cd562      Cd  0.11787914  0.31199545  0.66422183     1.59600
O563        O  0.23335012  0.24778230  0.67780888    -0.80000
O564        O  0.14242157  0.31702833  0.72143494    -1.90500
Cd565      Cd  0.15411900  0.38937469  0.74177695     1.61500
O566        O  0.18060071  0.28162579  0.63202589    -0.80000
O567        O  0.10662311  0.41632885  0.78929429    -0.78600
C568        C  0.01655205  0.26255833  0.68538493     0.83900
C569        C  0.14335950  0.20729912  0.79230137     0.83600
O570        O  0.06220033  0.34501334  0.78839790    -0.77600
C571        C  0.26385330  0.36202109  0.76629303     0.84400
O572        O  0.03245205  0.27206848  0.71999470    -0.77700
C573        C  0.22217298  0.25831916  0.64171227     0.84500
C574        C  0.11768675  0.43118402  0.66167033     0.84800
O575        O  0.10504210  0.38758552  0.64740379    -0.80100
O576        O  0.41888819  0.15648128  0.96352067    -0.77600
C577        C  0.33770708  0.29420502  0.95957376     0.83400
O578        O  0.43578907  0.22938091  0.59638210    -0.78700
O579        O  0.24773028  0.25373474  0.57407297    -0.80200
O580        O  0.25284333  0.10672942  0.99033720    -0.80000
O581        O  0.37448129  0.08515353  0.96264162    -0.78600
Zn582      Zn  0.39249469  0.20644067  0.00026510     1.55700
O583        O  0.22170148  0.18662859  0.99492902    -0.80000
Cd584      Cd  0.32694862  0.11213552  0.51012383     1.59700
Cd585      Cd  0.36319579  0.18950822  0.58766446     1.59600
O586        O  0.34000094  0.06455000  0.55729383    -0.80000
O587        O  0.33865741  0.18448732  0.53045266    -1.90500
Cd588      Cd  0.27848120  0.23153912  0.51955208     1.59900
O589        O  0.37601886  0.11391329  0.60448252    -0.80000
O590        O  0.29491852  0.29250557  0.97802631    -0.78600
C591        C  0.46451720  0.23897577  0.56652340     0.83900
C592        C  0.41102904  0.11238537  0.94935594     0.83600
O593        O  0.37277662  0.26272409  0.96775562    -0.77600
C594        C  0.21723474  0.13951113  0.98556664     0.84400
O595        O  0.44862334  0.22947947  0.53190830    -0.77700
C596        C  0.36333600  0.07031580  0.59023404     0.84500
C597        C  0.25890429  0.24319229  0.61016929     0.84800
O598        O  0.30047341  0.21988021  0.61985585    -0.80100
O599        O  0.58479217  0.67909774  0.58857684    -0.77600
C600        C  0.44706144  0.59795456  0.58466018     0.83400
O601        O  0.51191363  0.69604737  0.72144292    -0.78700
O602        O  0.48754660  0.50797029  0.69915145    -0.80200
O603        O  0.63453881  0.51305607  0.61545004    -0.80000
O604        O  0.65610712  0.63467143  0.58769765    -0.78600
Zn605      Zn  0.53484646  0.65272158  0.62533707     1.55700
O606        O  0.55462992  0.48193783  0.62001583    -0.80000
Cd607      Cd  0.62913224  0.58717294  0.63520544     1.59700
Cd608      Cd  0.55177584  0.62343901  0.71275111     1.59600
O609        O  0.67672245  0.60024982  0.68236077    -0.80000
O610        O  0.55678933  0.59889351  0.65553897    -1.90500
Cd611      Cd  0.50973060  0.53872662  0.64463820     1.59900
O612        O  0.62737596  0.63625799  0.72956456    -0.80000
O613        O  0.44875902  0.55516887  0.60311778    -0.78600
C614        C  0.50234014  0.72476788  0.69157397     0.83900
C615        C  0.62888008  0.67122024  0.57440523     0.83600
O616        O  0.47854702  0.63302110  0.59283609    -0.77600
C617        C  0.60175096  0.47745672  0.61066986     0.84400
O618        O  0.51184001  0.70885812  0.65696580    -0.77700
C619        C  0.67096821  0.62357982  0.71530315     0.84500
C620        C  0.49809826  0.51913585  0.73524644     0.84800
O621        O  0.52140540  0.56070656  0.74493742    -0.80100
O622        O  0.50252171  0.36850385  0.90918540    -0.77600
C623        C  0.35218114  0.33026558  0.92757187     0.83400
O624        O  0.46918153  0.30547281  0.78056678    -0.78700
O625        O  0.30435322  0.40129220  0.81961483    -0.80200
O626        O  0.42643541  0.51956411  0.88200721    -0.80000
O627        O  0.53230448  0.44635847  0.89890735    -0.78600
Zn628      Zn  0.44623731  0.34879171  0.87667222     1.55700
O629        O  0.34652750  0.48844258  0.88657244    -0.80000
Cd630      Cd  0.47133860  0.46278742  0.85738380     1.59700
Cd631      Cd  0.42931331  0.37807878  0.78926256     1.59600
O632        O  0.49353003  0.49355621  0.80287692    -0.80000
O633        O  0.42428493  0.40261818  0.84647316    -1.90500
Cd634      Cd  0.35193096  0.41433475  0.86678951     1.59900
O635        O  0.45968898  0.44081520  0.75708684    -0.80000
O636        O  0.32494494  0.36680495  0.91427433    -0.78600
C637        C  0.47876420  0.27675063  0.81043305     0.83900
C638        C  0.53400191  0.40357407  0.91736521     0.83600
O639        O  0.39628023  0.32240853  0.91341500    -0.77600
C640        C  0.37931579  0.52404129  0.89135575     0.84400
O641        O  0.46926450  0.29265597  0.84504316    -0.77700
C642        C  0.48298789  0.48238915  0.76678065     0.84500
C643        C  0.31012020  0.37796144  0.78667346     0.84800
O644        O  0.35371825  0.36527098  0.77242924    -0.80100
O645        O  0.87280952  0.26274509  0.78415388    -0.77600
C646        C  0.91103149  0.11240320  0.80255395     0.83400
O647        O  0.93581170  0.22940748  0.65552710    -0.78700
O648        O  0.84003081  0.06457946  0.69461661    -0.80200
O649        O  0.72172823  0.18666222  0.75699170    -0.80000
O650        O  0.79495394  0.29253318  0.77388072    -0.78600
Zn651      Zn  0.89251752  0.20645884  0.75164143     1.55700
O652        O  0.75285430  0.10675538  0.76155812    -0.80000
Cd653      Cd  0.77850846  0.23156710  0.73235849     1.59700
Cd654      Cd  0.86321748  0.18953205  0.66423707     1.59600
O655        O  0.74774540  0.25375646  0.67784312    -0.80000
O656        O  0.83867988  0.18451473  0.72145015    -1.90500
Cd657      Cd  0.82696140  0.11216677  0.74177818     1.59900
O658        O  0.80047930  0.21990005  0.63205443    -0.80000
O659        O  0.87447719  0.08518070  0.78926796    -0.78600
C660        C  0.96454021  0.23898986  0.68538889     0.83900
C661        C  0.83774142  0.29422771  0.79233557     0.83600
O662        O  0.91890459  0.15649526  0.78838650    -0.77600
C663        C  0.71725387  0.13954166  0.76634371     0.84400
O664        O  0.94864437  0.22948814  0.72000157    -0.77700
C665        C  0.75890980  0.24320932  0.64174654     0.84500
C666        C  0.86337509  0.07033743  0.66168043     0.84800
O667        O  0.87605546  0.11393262  0.64742530    -0.80100
O668        O  0.56218794  0.34502350  0.96354845    -0.77600
C669        C  0.64334711  0.20731252  0.95963038     0.83400
O670        O  0.54525103  0.27212059  0.59640363    -0.78700
O671        O  0.73333790  0.24779562  0.57411312    -0.80200
O672        O  0.72823120  0.39481251  0.99041647    -0.80000
O673        O  0.60659698  0.41634866  0.96266558    -0.78600
Zn674      Zn  0.58857028  0.29508666  0.00030737     1.55700
O675        O  0.75935132  0.31490259  0.99498181    -0.80000
Cd676      Cd  0.65410590  0.38938987  0.51017345     1.59700
Cd677      Cd  0.61785446  0.31199871  0.58771611     1.59600
O678        O  0.64100313  0.43696417  0.55733905    -0.80000
O679        O  0.64239877  0.31703953  0.53050531    -1.90500
Cd680      Cd  0.70257354  0.26999232  0.51960196     1.59900
O681        O  0.60502963  0.38759233  0.60454412    -0.80000
O682        O  0.68613670  0.20902114  0.97808170    -0.78600
C683        C  0.51652743  0.26255084  0.56653551     0.83900
C684        C  0.57005483  0.38911170  0.94937530     0.83600
O685        O  0.60827587  0.23879216  0.96780765    -0.77600
C686        C  0.76383279  0.36202378  0.98563638     0.84400
O687        O  0.53243144  0.27206443  0.53192821    -0.77700
C688        C  0.61769027  0.43119259  0.59028763     0.84500
C689        C  0.72216554  0.25832827  0.61021024     0.84800
O690        O  0.68058901  0.28162483  0.61990201    -0.80100
O691        O  0.97854918  0.63301526  0.65914567    -0.77600
C692        C  0.12888835  0.67120510  0.67756499     0.83400
O693        O  0.01190034  0.69602531  0.53052236    -0.78700
O694        O  0.17670555  0.60021674  0.56961036    -0.80200
O695        O  0.05461658  0.48192719  0.63195240    -0.80000
O696        O  0.94875103  0.55516603  0.64886367    -0.78600
Zn697      Zn  0.03484336  0.65271346  0.62663639     1.55700
O698        O  0.13452508  0.51304755  0.63651673    -0.80000
Cd699      Cd  0.00971274  0.53871635  0.60733416     1.59700
Cd700      Cd  0.05176159  0.62341954  0.53922196     1.59600
O701        O  0.98752731  0.50795555  0.55281766    -0.80000
O702        O  0.05677487  0.59888062  0.59643504    -1.90500
Cd703      Cd  0.12911890  0.58715860  0.61676579     1.59900
O704        O  0.02139820  0.56068611  0.50703413    -0.80000
O705        O  0.15610931  0.63465282  0.66427164    -0.78600
C706        C  0.00233073  0.72475003  0.56038907     0.83900
C707        C  0.94706244  0.59795051  0.66732431     0.83600
O708        O  0.08480028  0.67908840  0.66339365    -0.77600
C709        C  0.10173928  0.47744760  0.64129506     0.84400
O710        O  0.01183346  0.70884457  0.59499883    -0.77700
C711        C  0.99808753  0.51911701  0.51672297     0.84500
C712        C  0.17095155  0.62355003  0.53666988     0.84800
O713        O  0.12736033  0.63623622  0.52241047    -0.80100
O714        O  0.89630225  0.32241227  0.83851237    -0.77600
C715        C  0.03402248  0.40356043  0.83459086     0.83400
O716        O  0.96916118  0.30545341  0.97137754    -0.78700
O717        O  0.99353995  0.49353482  0.94909075    -0.80200
O718        O  0.84654174  0.48844057  0.86539026    -0.80000
O719        O  0.82497352  0.36681837  0.83764171    -0.78600
Zn720      Zn  0.94624567  0.34878805  0.87527125     1.55700
O721        O  0.92644996  0.51956113  0.86996498    -0.80000
Cd722      Cd  0.85194189  0.41432491  0.88514674     1.59700
Cd723      Cd  0.92930124  0.37806746  0.96268684     1.59600
O724        O  0.80434512  0.40126878  0.93230757    -0.80000
O725        O  0.92429086  0.40260977  0.90547508    -1.90500
Cd726      Cd  0.97135453  0.46277505  0.89457629     1.59900
O727        O  0.85369945  0.36527216  0.97951163    -0.80000
O728        O  0.03232295  0.44634527  0.85304922    -0.78600
C729        C  0.97874797  0.27673692  0.94150855     0.83900
C730        C  0.85221022  0.33027927  0.82434505     0.83600
O731        O  0.00254020  0.36849203  0.84276802    -0.77600
C732        C  0.87932926  0.52404214  0.86061911     0.84400
O733        O  0.96925686  0.29265004  0.90689937    -0.77700
C734        C  0.81010402  0.37795471  0.96525683     0.84500
C735        C  0.98298361  0.48236987  0.98518521     0.84800
O736        O  0.95967562  0.44079882  0.49487328    -0.80100
loop_ 
_geom_bond_atom_site_label_1 
_geom_bond_atom_site_label_2 
_geom_bond_distance 
_geom_bond_site_symmetry_2 
_ccdc_geom_bond_type 
O1           C17   1.261       .  A
O1           Zn7   1.903       .  S
C2           O18   1.263       .  A
C2           O15   1.271       .  A
C2          C301   1.480       .  S
O3           C16   1.279       .  A
O3          Cd10   2.182       .  S
O4           C22   1.275       .  A
O4          Cd13   2.045       .  S
O5           C19   1.275       .  A
O5           Cd9   2.064   1_565  S
O6           C17   1.279       .  A
O6           Cd9   2.162       .  S
Zn7          O18   1.925       .  S
Zn7          O20   1.909       .  S
Zn7          O12   1.827       .  S
O8           C19   1.274   1_545  A
O8          Cd13   2.051       .  S
Cd9          O11   2.086       .  S
Cd9          O12   2.027       .  S
Cd10         O14   2.118       .  S
Cd10         O23   2.080       .  S
Cd10         O12   2.035       .  S
O11          C21   1.280       .  A
O12         Cd13   2.032       .  S
Cd13         O15   2.143       .  S
O14          C21   1.286       .  A
C16          O20   1.262       .  A
C16         C269   1.491       .  S
C17         C224   1.480       .  S
C19          C68   1.450       .  S
C21          C45   1.485   1_545  S
C22          O23   1.279       .  A
C22         C295   1.450       .  S
O24          C40   1.263       .  A
O24         Zn30   1.925       .  S
C25          O41   1.261       .  A
C25          O38   1.279       .  A
C25          C48   1.480       .  S
O26          C39   1.279       .  A
O26         Cd33   2.182       .  S
O27          C45   1.280       .  A
O27         Cd36   2.086       .  S
O28          C42   1.274   1_565  A
O28         Cd32   2.051       .  S
O29          C40   1.271       .  A
O29         Cd32   2.143       .  S
Zn30         O41   1.903       .  S
Zn30         O43   1.909       .  S
Zn30         O35   1.827       .  S
O31          C42   1.275       .  A
O31         Cd36   2.064   1_545  S
Cd32         O34   2.045       .  S
Cd32         O35   2.032       .  S
Cd33         O37   2.080       .  S
Cd33         O46   2.118       .  S
Cd33         O35   2.035       .  S
O34          C44   1.275       .  A
O35         Cd36   2.027       .  S
Cd36         O38   2.162       .  S
O37          C44   1.279       .  A
C39          O43   1.262       .  A
C39         C246   1.491       .  S
C40         C178   1.480       .  S
C42         C228   1.450       .  S
C44         C157   1.450       .  S
C45          O46   1.286       .  A
O47          C63   1.261       .  A
O47         Zn53   1.903       .  S
C48          O64   1.263       .  A
C48          O61   1.271       .  A
O49          C62   1.279       .  A
O49         Cd56   2.182       .  S
O50          C68   1.275       .  A
O50         Cd59   2.045       .  S
O51          C65   1.275       .  A
O51        Cd423   2.064   1_554  S
O52          C63   1.279       .  A
O52        Cd423   2.162   1_554  S
Zn53         O64   1.925       .  S
Zn53        O434   1.909   1_554  S
Zn53        O426   1.827   1_554  S
O54          C65   1.274       .  A
O54        Cd427   2.051   1_554  S
Cd55         O57   2.086       .  S
Cd55        O419   2.064       .  S
Cd55        O420   2.162       .  S
Cd55         O58   2.027       .  S
Cd56         O60   2.118       .  S
Cd56         O69   2.080       .  S
Cd56         O58   2.035       .  S
O57          C67   1.280       .  A
O58        Zn421   1.827       .  S
O58         Cd59   2.032       .  S
Cd59        O422   2.051       .  S
Cd59        O429   2.143       .  S
O60          C67   1.286       .  A
O61        Cd427   2.143   1_554  S
C62          O66   1.262       .  A
C62         C177   1.491       .  S
C63         C247   1.480       .  S
C65         C137   1.450       .  S
O66        Zn421   1.909       .  S
C67          C91   1.485       .  S
C68          O69   1.279       .  A
O70          C86   1.263       .  A
O70         Zn76   1.925       .  S
C71          O87   1.261       .  A
C71          O84   1.279       .  A
C71         C117   1.480       .  S
O72          C85   1.279       .  A
O72         Cd79   2.182       .  S
O73          C91   1.280       .  A
O73         Cd82   2.086       .  S
O74          C88   1.274       .  A
O74         Cd78   2.051       .  S
O75          C86   1.271       .  A
O75         Cd78   2.143       .  S
Zn76         O87   1.903       .  S
Zn76         O89   1.908       .  S
Zn76         O81   1.827       .  S
O77          C88   1.275       .  A
O77         Cd82   2.064       .  S
Cd78         O80   2.045       .  S
Cd78         O81   2.032       .  S
Cd79         O83   2.080       .  S
Cd79         O92   2.118       .  S
Cd79         O81   2.035       .  S
O80          C90   1.274       .  A
O81         Cd82   2.027       .  S
Cd82         O84   2.162       .  S
O83          C90   1.279       .  A
C85          O89   1.262       .  A
C85         C154   1.491   1_655  S
C86         C339   1.480       .  S
C88         C251   1.450       .  S
C90         C364   1.450       .  S
C91          O92   1.286       .  A
O93         C109   1.263       .  A
O93         Zn99   1.925       .  S
C94         O110   1.261       .  A
C94         O107   1.279       .  A
C94         C278   1.480       .  S
O95         C108   1.279       .  A
O95        Cd102   2.182       .  S
O96         C114   1.280       .  A
O96        Cd105   2.086   1_655  S
O97         C111   1.274   1_545  A
O97        Cd101   2.051       .  S
O98         C109   1.271       .  A
O98        Cd101   2.143       .  S
Zn99        O110   1.903   1_455  S
Zn99        O112   1.909       .  S
Zn99        O104   1.827       .  S
O100        C111   1.275       .  A
O100       Cd105   2.064   1_565  S
Cd101       O103   2.045       .  S
Cd101       O104   2.032       .  S
Cd102       O106   2.080       .  S
Cd102       O483   2.118       .  S
Cd102       O104   2.035       .  S
O103        C113   1.275       .  A
O104       Cd105   2.027       .  S
Cd105       O107   2.162   1_455  S
O106        C113   1.279       .  A
C108        O112   1.262       .  A
C108        C361   1.491   1_455  S
C109        C201   1.480       .  S
C111        C159   1.450       .  S
C113        C226   1.450       .  S
C114        O483   1.286   1_655  A
C114        C504   1.485   1_545  S
O115        C482   1.286   1_455  A
O115       Cd470   2.118       .  S
O116        C132   1.261       .  A
O116       Zn122   1.903   1_455  S
C117        O133   1.263       .  A
C117        O130   1.271       .  A
O118        C131   1.279       .  A
O118       Cd125   2.182       .  S
O119        C137   1.275       .  A
O119       Cd128   2.045       .  S
O120        C134   1.275       .  A
O120       Cd124   2.064   1_545  S
O121        C132   1.279       .  A
O121       Cd124   2.162   1_455  S
Zn122       O133   1.926       .  S
Zn122       O135   1.909       .  S
Zn122       O127   1.827       .  S
O123        C134   1.274   1_565  A
O123       Cd128   2.051       .  S
Cd124       O126   2.086       .  S
Cd124       O127   2.027       .  S
Cd125       O129   2.118       .  S
Cd125       O138   2.080       .  S
Cd125       O127   2.035       .  S
O126        C136   1.280       .  A
O127       Cd128   2.032       .  S
Cd128       O130   2.143       .  S
O129        C136   1.286       .  A
C131        O135   1.262       .  A
C131        C338   1.491   1_655  S
C132        C155   1.480       .  S
C134        C298   1.450       .  S
C136        C482   1.485   1_564  S
C137        O138   1.279       .  A
O139        C155   1.263       .  A
O139       Zn145   1.925       .  S
C140        O156   1.261       .  A
C140        O153   1.279       .  A
C140        C324   1.480       .  S
O141        C154   1.279       .  A
O141       Cd148   2.182       .  S
O142        C160   1.280       .  A
O142       Cd151   2.086       .  S
O143        C157   1.274       .  A
O143       Cd147   2.051       .  S
O144        C155   1.271       .  A
O144       Cd147   2.143       .  S
Zn145       O156   1.903       .  S
Zn145       O158   1.909       .  S
Zn145       O150   1.827       .  S
O146        C157   1.275       .  A
O146       Cd151   2.064       .  S
Cd147       O149   2.045       .  S
Cd147       O150   2.032       .  S
Cd148       O152   2.080       .  S
Cd148       O161   2.118       .  S
Cd148       O150   2.035       .  S
O149        C159   1.274       .  A
O150       Cd151   2.027       .  S
Cd151       O153   2.162       .  S
O152        C159   1.279       .  A
C154        O158   1.262       .  A
C160        O161   1.286       .  A
C160        C182   1.485       .  S
O162        C178   1.261       .  A
O162       Zn168   1.903       .  S
C163        O179   1.263       .  A
C163        O176   1.271       .  A
C163        C232   1.480       .  S
O164        C177   1.279       .  A
O164       Cd171   2.182       .  S
O165        C183   1.274       .  A
O165       Cd174   2.045       .  S
O166        C180   1.275       .  A
O166       Cd538   2.064   1_554  S
O167        C178   1.279       .  A
O167       Cd538   2.162   1_554  S
Zn168       O179   1.925       .  S
Zn168       O549   1.909   1_554  S
Zn168       O541   1.827   1_554  S
O169        C180   1.274       .  A
O169       Cd542   2.051   1_554  S
Cd170       O172   2.086       .  S
Cd170       O534   2.064       .  S
Cd170       O535   2.162       .  S
Cd170       O173   2.027       .  S
Cd171       O175   2.118       .  S
Cd171       O184   2.080       .  S
Cd171       O173   2.035       .  S
O172        C182   1.280       .  A
O173       Zn536   1.827       .  S
O173       Cd174   2.032       .  S
Cd174       O537   2.051       .  S
Cd174       O544   2.143       .  S
O175        C182   1.286       .  A
O176       Cd542   2.143   1_554  S
C177        O181   1.262       .  A
C180        C344   1.450       .  S
O181       Zn536   1.909       .  S
C183        O184   1.279       .  A
C183        C272   1.450       .  S
O185        C201   1.261       .  A
O185       Zn191   1.903       .  S
C186        O202   1.263       .  A
C186        O199   1.271       .  A
C186        C347   1.480       .  S
O187        C200   1.279       .  A
O187       Cd194   2.182       .  S
O188        C206   1.275       .  A
O188       Cd197   2.045       .  S
O189        C203   1.275       .  A
O189       Cd193   2.064       .  S
O190        C201   1.279       .  A
O190       Cd193   2.162       .  S
Zn191       O202   1.925       .  S
Zn191       O204   1.909       .  S
Zn191       O196   1.827       .  S
O192        C203   1.274       .  A
O192       Cd197   2.051       .  S
Cd193       O195   2.086       .  S
Cd193       O196   2.027       .  S
Cd194       O198   2.118       .  S
Cd194       O207   2.080       .  S
Cd194       O196   2.035       .  S
O195        C205   1.280       .  A
O196       Cd197   2.032       .  S
Cd197       O199   2.143       .  S
O198        C205   1.286       .  A
C200        O204   1.262       .  A
C200        C292   1.491   1_455  S
C203        C275   1.450       .  S
C205        C229   1.485       .  S
C206        O207   1.279       .  A
C206        C341   1.450       .  S
O208        C224   1.263       .  A
O208       Zn214   1.925       .  S
C209        O225   1.261       .  A
C209        O222   1.279       .  A
C209        C255   1.480       .  S
O210        C223   1.279       .  A
O210       Cd217   2.182       .  S
O211        C229   1.280       .  A
O211       Cd220   2.086       .  S
O212        C226   1.274       .  A
O212       Cd584   2.051       .  S
O213        C224   1.271       .  A
O213       Cd584   2.143       .  S
Zn214       O225   1.903       .  S
Zn214       O595   1.909       .  S
Zn214       O587   1.827       .  S
O215        C226   1.275       .  A
O215       Cd588   2.064       .  S
Cd216       O218   2.045       .  S
Cd216       O580   2.051   1_554  S
Cd216       O581   2.143   1_554  S
Cd216       O219   2.032       .  S
Cd217       O221   2.080       .  S
Cd217       O230   2.118       .  S
Cd217       O219   2.035       .  S
O218        C228   1.275       .  A
O219       Zn582   1.827       .  S
O219       Cd220   2.027       .  S
Cd220       O583   2.064   1_554  S
Cd220       O590   2.162   1_554  S
O221        C228   1.279       .  A
O222       Cd588   2.162       .  S
C223        O227   1.262       .  A
C223        C315   1.491       .  S
O227       Zn582   1.909       .  S
C229        O230   1.286       .  A
O231        C247   1.263       .  A
O231       Zn237   1.925       .  S
C232        O248   1.261       .  A
C232        O245   1.279       .  A
O233        C246   1.279       .  A
O233       Cd240   2.182       .  S
O234        C252   1.280       .  A
O234       Cd243   2.086       .  S
O235        C249   1.274       .  A
O235       Cd239   2.051       .  S
O236        C247   1.271       .  A
O236       Cd239   2.143       .  S
Zn237       O248   1.903       .  S
Zn237       O250   1.909       .  S
Zn237       O242   1.827       .  S
O238        C249   1.275       .  A
O238       Cd243   2.064       .  S
Cd239       O241   2.045       .  S
Cd239       O242   2.032       .  S
Cd240       O244   2.080       .  S
Cd240       O253   2.118       .  S
Cd240       O242   2.035       .  S
O241        C251   1.274       .  A
O242       Cd243   2.027       .  S
Cd243       O245   2.162       .  S
O244        C251   1.279       .  A
C246        O250   1.262       .  A
C249        C320   1.450       .  S
C252        O253   1.286       .  A
C252        C274   1.484       .  S
O254        C270   1.261       .  A
O254       Zn260   1.903       .  S
C255        O271   1.263       .  A
C255        O268   1.271       .  A
O256        C269   1.279       .  A
O256       Cd263   2.182       .  S
O257        C275   1.275       .  A
O257       Cd266   2.045       .  S
O258        C272   1.275       .  A
O258       Cd262   2.063       .  S
O259        C270   1.279       .  A
O259       Cd262   2.161       .  S
Zn260       O271   1.925       .  S
Zn260       O273   1.909       .  S
Zn260       O265   1.827       .  S
O261        C272   1.274       .  A
O261       Cd266   2.051       .  S
Cd262       O264   2.086       .  S
Cd262       O265   2.027       .  S
Cd263       O267   2.118       .  S
Cd263       O276   2.080       .  S
Cd263       O265   2.035       .  S
O264        C274   1.280       .  A
O265       Cd266   2.032       .  S
Cd266       O268   2.143       .  S
O267        C274   1.286       .  A
C269        O273   1.262       .  A
C270        C316   1.480       .  S
C275        O276   1.279       .  A
O277        C293   1.261       .  A
O277       Zn283   1.903       .  S
C278        O294   1.263       .  A
C278        O291   1.271       .  A
O279        C292   1.279       .  A
O279       Cd286   2.182       .  S
O280        C298   1.275       .  A
O280       Cd289   2.045       .  S
O281        C295   1.275       .  A
O281       Cd285   2.064       .  S
O282        C293   1.279       .  A
O282       Cd285   2.162       .  S
Zn283       O294   1.925       .  S
Zn283       O296   1.909       .  S
Zn283       O288   1.827       .  S
O284        C295   1.274       .  A
O284       Cd289   2.051       .  S
Cd285       O287   2.086       .  S
Cd285       O288   2.027       .  S
Cd286       O290   2.118       .  S
Cd286       O299   2.080       .  S
Cd286       O288   2.035       .  S
O287        C297   1.280       .  A
O288       Cd289   2.032       .  S
Cd289       O291   2.143       .  S
O290        C297   1.286       .  A
C292        O296   1.262       .  A
C293        C362   1.480       .  S
C297        C321   1.484       .  S
C298        O299   1.279       .  A
O300        C316   1.263       .  A
O300       Zn306   1.925       .  S
C301        O317   1.261       .  A
C301        O314   1.279       .  A
O302        C315   1.279       .  A
O302       Cd309   2.182       .  S
O303        C321   1.280       .  A
O303       Cd312   2.086       .  S
O304        C318   1.274       .  A
O304       Cd676   2.051       .  S
O305        C316   1.271       .  A
O305       Cd676   2.143       .  S
Zn306       O317   1.903       .  S
Zn306       O687   1.909       .  S
Zn306       O679   1.827       .  S
O307        C318   1.275       .  A
O307       Cd680   2.064       .  S
Cd308       O310   2.045       .  S
Cd308       O672   2.051   1_554  S
Cd308       O673   2.143   1_554  S
Cd308       O311   2.032       .  S
Cd309       O313   2.080       .  S
Cd309       O322   2.118       .  S
Cd309       O311   2.035       .  S
O310        C320   1.275       .  A
O311       Zn674   1.827       .  S
O311       Cd312   2.027       .  S
Cd312       O675   2.064   1_554  S
Cd312       O682   2.162   1_554  S
O313        C320   1.279       .  A
O314       Cd680   2.162       .  S
C315        O319   1.262       .  A
C318        C366   1.450       .  S
O319       Zn674   1.909       .  S
C321        O322   1.286       .  A
O323        C339   1.261       .  A
O323       Zn329   1.903   1_655  S
C324        O340   1.263       .  A
C324        O337   1.271       .  A
O325        C338   1.279       .  A
O325       Cd332   2.182       .  S
O326        C344   1.274       .  A
O326       Cd335   2.045       .  S
O327        C341   1.275       .  A
O327       Cd331   2.064       .  S
O328        C339   1.279       .  A
O328       Cd331   2.162   1_655  S
Zn329       O340   1.925       .  S
Zn329       O342   1.909       .  S
Zn329       O334   1.827       .  S
O330        C341   1.274       .  A
O330       Cd335   2.051       .  S
Cd331       O333   2.086   1_455  S
Cd331       O334   2.027       .  S
Cd332       O336   2.118       .  S
Cd332       O345   2.080       .  S
Cd332       O334   2.035       .  S
O333        C343   1.280       .  A
O334       Cd335   2.032       .  S
Cd335       O337   2.143       .  S
O336        C343   1.286   1_455  A
C338        O342   1.262       .  A
C343        C735   1.484   1_554  S
C344        O345   1.279       .  A
O346        C362   1.263       .  A
O346       Zn352   1.925       .  S
C347        O363   1.261       .  A
C347        O360   1.279       .  A
O348        C361   1.279       .  A
O348       Cd355   2.182       .  S
O349        C367   1.280       .  A
O349       Cd358   2.086       .  S
O350        C364   1.274       .  A
O350       Cd354   2.051       .  S
O351        C362   1.271       .  A
O351       Cd354   2.143       .  S
Zn352       O363   1.903   1_655  S
Zn352       O365   1.909       .  S
Zn352       O357   1.827       .  S
O353        C364   1.275       .  A
O353       Cd358   2.064       .  S
Cd354       O356   2.045       .  S
Cd354       O357   2.032       .  S
Cd355       O359   2.080       .  S
Cd355       O736   2.118       .  S
Cd355       O357   2.035       .  S
O356        C366   1.275       .  A
O357       Cd358   2.027       .  S
Cd358       O360   2.162   1_655  S
O359        C366   1.279       .  A
C361        O365   1.262       .  A
C367        O736   1.286       .  A
C367        C711   1.484       .  S
O368        C735   1.286       .  A
O368       Cd723   2.118       .  S
O369        C385   1.261       .  A
O369       Zn375   1.903       .  S
C370        O386   1.263       .  A
C370        O383   1.271       .  A
C370        C669   1.480       .  S
O371        C384   1.279       .  A
O371       Cd378   2.182       .  S
O372        C390   1.275       .  A
O372       Cd381   2.045       .  S
O373        C387   1.275       .  A
O373       Cd377   2.064   1_565  S
O374        C385   1.279       .  A
O374       Cd377   2.162       .  S
Zn375       O386   1.925       .  S
Zn375       O388   1.909       .  S
Zn375       O380   1.827       .  S
O376        C387   1.274   1_545  A
O376       Cd381   2.051       .  S
Cd377       O379   2.086       .  S
Cd377       O380   2.027       .  S
Cd378       O382   2.118       .  S
Cd378       O391   2.080       .  S
Cd378       O380   2.035       .  S
O379        C389   1.280       .  A
O380       Cd381   2.032       .  S
Cd381       O383   2.143       .  S
O382        C389   1.286       .  A
C384        O388   1.262       .  A
C384        C637   1.491       .  S
C385        C592   1.480       .  S
C387        C436   1.450       .  S
C389        C413   1.485   1_545  S
C390        O391   1.279       .  A
C390        C663   1.450       .  S
O392        C408   1.263       .  A
O392       Zn398   1.925       .  S
C393        O409   1.261       .  A
C393        O406   1.279       .  A
C393        C416   1.480       .  S
O394        C407   1.279       .  A
O394       Cd401   2.182       .  S
O395        C413   1.280       .  A
O395       Cd404   2.086       .  S
O396        C410   1.274   1_565  A
O396       Cd400   2.051       .  S
O397        C408   1.271       .  A
O397       Cd400   2.143       .  S
Zn398       O409   1.903       .  S
Zn398       O411   1.909       .  S
Zn398       O403   1.827       .  S
O399        C410   1.275       .  A
O399       Cd404   2.064   1_545  S
Cd400       O402   2.045       .  S
Cd400       O403   2.032       .  S
Cd401       O405   2.080       .  S
Cd401       O414   2.118       .  S
Cd401       O403   2.035       .  S
O402        C412   1.275       .  A
O403       Cd404   2.027       .  S
Cd404       O406   2.162       .  S
O405        C412   1.279       .  A
C407        O411   1.262       .  A
C407        C614   1.491       .  S
C408        C546   1.480       .  S
C410        C596   1.450       .  S
C412        C525   1.450       .  S
C413        O414   1.286       .  A
O415        C431   1.261       .  A
O415       Zn421   1.903       .  S
C416        O432   1.263       .  A
C416        O429   1.271       .  A
O417        C430   1.279       .  A
O417       Cd424   2.182       .  S
O418        C436   1.275       .  A
O418       Cd427   2.045       .  S
O419        C433   1.275       .  A
O420        C431   1.279       .  A
Zn421       O432   1.925       .  S
O422        C433   1.274       .  A
Cd423       O425   2.086       .  S
Cd423       O426   2.027       .  S
Cd424       O428   2.118       .  S
Cd424       O437   2.080       .  S
Cd424       O426   2.035       .  S
O425        C435   1.280       .  A
O426       Cd427   2.032       .  S
O428        C435   1.286       .  A
C430        O434   1.262       .  A
C430        C545   1.491       .  S
C431        C615   1.480       .  S
C433        C505   1.450       .  S
C435        C459   1.485       .  S
C436        O437   1.279       .  A
O438        C454   1.263       .  A
O438       Zn444   1.925       .  S
C439        O455   1.261       .  A
C439        O452   1.279       .  A
C439        C485   1.480       .  S
O440        C453   1.279       .  A
O440       Cd447   2.182       .  S
O441        C459   1.280       .  A
O441       Cd450   2.086       .  S
O442        C456   1.274       .  A
O442       Cd446   2.051       .  S
O443        C454   1.271       .  A
O443       Cd446   2.143       .  S
Zn444       O455   1.903       .  S
Zn444       O457   1.908       .  S
Zn444       O449   1.827       .  S
O445        C456   1.275       .  A
O445       Cd450   2.064       .  S
Cd446       O448   2.045       .  S
Cd446       O449   2.032       .  S
Cd447       O451   2.080       .  S
Cd447       O460   2.118       .  S
Cd447       O449   2.035       .  S
O448        C458   1.274       .  A
O449       Cd450   2.027       .  S
Cd450       O452   2.162       .  S
O451        C458   1.279       .  A
C453        O457   1.262       .  A
C453        C522   1.491   1_655  S
C454        C707   1.480       .  S
C456        C619   1.450       .  S
C458        C732   1.450       .  S
C459        O460   1.286       .  A
O461        C477   1.263       .  A
O461       Zn467   1.925       .  S
C462        O478   1.261       .  A
C462        O475   1.279       .  A
C462        C646   1.480       .  S
O463        C476   1.279       .  A
O463       Cd470   2.182       .  S
O464        C482   1.280       .  A
O464       Cd473   2.086   1_655  S
O465        C479   1.274   1_545  A
O465       Cd469   2.051       .  S
O466        C477   1.271       .  A
O466       Cd469   2.143       .  S
Zn467       O478   1.903   1_455  S
Zn467       O480   1.909       .  S
Zn467       O472   1.827       .  S
O468        C479   1.275       .  A
O468       Cd473   2.064   1_565  S
Cd469       O471   2.045       .  S
Cd469       O472   2.032       .  S
Cd470       O474   2.080       .  S
Cd470       O472   2.035       .  S
O471        C481   1.275       .  A
O472       Cd473   2.027       .  S
Cd473       O475   2.162   1_455  S
O474        C481   1.279       .  A
C476        O480   1.262       .  A
C476        C729   1.491   1_455  S
C477        C569   1.480       .  S
C479        C527   1.450       .  S
C481        C594   1.450       .  S
O484        C500   1.261       .  A
O484       Zn490   1.903   1_455  S
C485        O501   1.263       .  A
C485        O498   1.271       .  A
O486        C499   1.279       .  A
O486       Cd493   2.182       .  S
O487        C505   1.275       .  A
O487       Cd496   2.045       .  S
O488        C502   1.275       .  A
O488       Cd492   2.064   1_545  S
O489        C500   1.279       .  A
O489       Cd492   2.162   1_455  S
Zn490       O501   1.926       .  S
Zn490       O503   1.909       .  S
Zn490       O495   1.827       .  S
O491        C502   1.274   1_565  A
O491       Cd496   2.051       .  S
Cd492       O494   2.086       .  S
Cd492       O495   2.027       .  S
Cd493       O497   2.118       .  S
Cd493       O506   2.080       .  S
Cd493       O495   2.035       .  S
O494        C504   1.280       .  A
O495       Cd496   2.032       .  S
Cd496       O498   2.143       .  S
O497        C504   1.286       .  A
C499        O503   1.262       .  A
C499        C706   1.491   1_655  S
C500        C523   1.480       .  S
C502        C666   1.450       .  S
C505        O506   1.279       .  A
O507        C523   1.263       .  A
O507       Zn513   1.925       .  S
C508        O524   1.261       .  A
C508        O521   1.279       .  A
C508        C692   1.480       .  S
O509        C522   1.279       .  A
O509       Cd516   2.182       .  S
O510        C528   1.280       .  A
O510       Cd519   2.086       .  S
O511        C525   1.274       .  A
O511       Cd515   2.051       .  S
O512        C523   1.271       .  A
O512       Cd515   2.143       .  S
Zn513       O524   1.903       .  S
Zn513       O526   1.909       .  S
Zn513       O518   1.827       .  S
O514        C525   1.275       .  A
O514       Cd519   2.064       .  S
Cd515       O517   2.045       .  S
Cd515       O518   2.032       .  S
Cd516       O520   2.080       .  S
Cd516       O529   2.118       .  S
Cd516       O518   2.035       .  S
O517        C527   1.274       .  A
O518       Cd519   2.027       .  S
Cd519       O521   2.162       .  S
O520        C527   1.279       .  A
C522        O526   1.262       .  A
C528        O529   1.286       .  A
C528        C550   1.485       .  S
O530        C546   1.261       .  A
O530       Zn536   1.903       .  S
C531        O547   1.263       .  A
C531        O544   1.271       .  A
C531        C600   1.480       .  S
O532        C545   1.279       .  A
O532       Cd539   2.182       .  S
O533        C551   1.274       .  A
O533       Cd542   2.045       .  S
O534        C548   1.275       .  A
O535        C546   1.279       .  A
Zn536       O547   1.925       .  S
O537        C548   1.274       .  A
Cd538       O540   2.086       .  S
Cd538       O541   2.027       .  S
Cd539       O543   2.118       .  S
Cd539       O552   2.080       .  S
Cd539       O541   2.035       .  S
O540        C550   1.280       .  A
O541       Cd542   2.032       .  S
O543        C550   1.286       .  A
C545        O549   1.262       .  A
C548        C712   1.450       .  S
C551        O552   1.279       .  A
C551        C640   1.450       .  S
O553        C569   1.261       .  A
O553       Zn559   1.903       .  S
C554        O570   1.263       .  A
C554        O567   1.271       .  A
C554        C715   1.480       .  S
O555        C568   1.279       .  A
O555       Cd562   2.182       .  S
O556        C574   1.275       .  A
O556       Cd565   2.045       .  S
O557        C571   1.275       .  A
O557       Cd561   2.064       .  S
O558        C569   1.279       .  A
O558       Cd561   2.162       .  S
Zn559       O570   1.925       .  S
Zn559       O572   1.909       .  S
Zn559       O564   1.827       .  S
O560        C571   1.274       .  A
O560       Cd565   2.051       .  S
Cd561       O563   2.086       .  S
Cd561       O564   2.027       .  S
Cd562       O566   2.118       .  S
Cd562       O575   2.080       .  S
Cd562       O564   2.035       .  S
O563        C573   1.280       .  A
O564       Cd565   2.032       .  S
Cd565       O567   2.143       .  S
O566        C573   1.286       .  A
C568        O572   1.262       .  A
C568        C660   1.491   1_455  S
C571        C643   1.450       .  S
C573        C597   1.485       .  S
C574        O575   1.279       .  A
C574        C709   1.450       .  S
O576        C592   1.263       .  A
O576       Zn582   1.925   1_556  S
C577        O593   1.261       .  A
C577        O590   1.279       .  A
C577        C623   1.480       .  S
O578        C591   1.279       .  A
O578       Cd585   2.182       .  S
O579        C597   1.280       .  A
O579       Cd588   2.086       .  S
O580        C594   1.274       .  A
O581        C592   1.271       .  A
Zn582       O593   1.903   1_554  S
O583        C594   1.275       .  A
Cd584       O586   2.045       .  S
Cd584       O587   2.032       .  S
Cd585       O589   2.080       .  S
Cd585       O598   2.118       .  S
Cd585       O587   2.035       .  S
O586        C596   1.275       .  A
O587       Cd588   2.027       .  S
O589        C596   1.279       .  A
C591        O595   1.262       .  A
C591        C683   1.491       .  S
C597        O598   1.286       .  A
O599        C615   1.263       .  A
O599       Zn605   1.925       .  S
C600        O616   1.261       .  A
C600        O613   1.279       .  A
O601        C614   1.279       .  A
O601       Cd608   2.182       .  S
O602        C620   1.280       .  A
O602       Cd611   2.086       .  S
O603        C617   1.274       .  A
O603       Cd607   2.051       .  S
O604        C615   1.271       .  A
O604       Cd607   2.143       .  S
Zn605       O616   1.903       .  S
Zn605       O618   1.909       .  S
Zn605       O610   1.827       .  S
O606        C617   1.275       .  A
O606       Cd611   2.064       .  S
Cd607       O609   2.045       .  S
Cd607       O610   2.032       .  S
Cd608       O612   2.080       .  S
Cd608       O621   2.118       .  S
Cd608       O610   2.035       .  S
O609        C619   1.274       .  A
O610       Cd611   2.027       .  S
Cd611       O613   2.162       .  S
O612        C619   1.279       .  A
C614        O618   1.262       .  A
C617        C688   1.450       .  S
C620        O621   1.286       .  A
C620        C642   1.484       .  S
O622        C638   1.261       .  A
O622       Zn628   1.903       .  S
C623        O639   1.263       .  A
C623        O636   1.271       .  A
O624        C637   1.279       .  A
O624       Cd631   2.182       .  S
O625        C643   1.275       .  A
O625       Cd634   2.045       .  S
O626        C640   1.275       .  A
O626       Cd630   2.063       .  S
O627        C638   1.279       .  A
O627       Cd630   2.161       .  S
Zn628       O639   1.925       .  S
Zn628       O641   1.909       .  S
Zn628       O633   1.827       .  S
O629        C640   1.274       .  A
O629       Cd634   2.051       .  S
Cd630       O632   2.086       .  S
Cd630       O633   2.027       .  S
Cd631       O635   2.118       .  S
Cd631       O644   2.080       .  S
Cd631       O633   2.035       .  S
O632        C642   1.280       .  A
O633       Cd634   2.032       .  S
Cd634       O636   2.143       .  S
O635        C642   1.286       .  A
C637        O641   1.262       .  A
C638        C684   1.480       .  S
C643        O644   1.279       .  A
O645        C661   1.261       .  A
O645       Zn651   1.903       .  S
C646        O662   1.263       .  A
C646        O659   1.271       .  A
O647        C660   1.279       .  A
O647       Cd654   2.182       .  S
O648        C666   1.275       .  A
O648       Cd657   2.045       .  S
O649        C663   1.275       .  A
O649       Cd653   2.064       .  S
O650        C661   1.279       .  A
O650       Cd653   2.162       .  S
Zn651       O662   1.925       .  S
Zn651       O664   1.909       .  S
Zn651       O656   1.827       .  S
O652        C663   1.274       .  A
O652       Cd657   2.051       .  S
Cd653       O655   2.086       .  S
Cd653       O656   2.027       .  S
Cd654       O658   2.118       .  S
Cd654       O667   2.080       .  S
Cd654       O656   2.035       .  S
O655        C665   1.280       .  A
O656       Cd657   2.032       .  S
Cd657       O659   2.143       .  S
O658        C665   1.286       .  A
C660        O664   1.262       .  A
C661        C730   1.480       .  S
C665        C689   1.484       .  S
C666        O667   1.279       .  A
O668        C684   1.263       .  A
O668       Zn674   1.925   1_556  S
C669        O685   1.261       .  A
C669        O682   1.279       .  A
O670        C683   1.279       .  A
O670       Cd677   2.182       .  S
O671        C689   1.280       .  A
O671       Cd680   2.086       .  S
O672        C686   1.274       .  A
O673        C684   1.271       .  A
Zn674       O685   1.903   1_554  S
O675        C686   1.275       .  A
Cd676       O678   2.045       .  S
Cd676       O679   2.032       .  S
Cd677       O681   2.080       .  S
Cd677       O690   2.118       .  S
Cd677       O679   2.035       .  S
O678        C688   1.275       .  A
O679       Cd680   2.027       .  S
O681        C688   1.279       .  A
C683        O687   1.262       .  A
C686        C734   1.450       .  S
C689        O690   1.286       .  A
O691        C707   1.261       .  A
O691       Zn697   1.903   1_655  S
C692        O708   1.263       .  A
C692        O705   1.271       .  A
O693        C706   1.279       .  A
O693       Cd700   2.182       .  S
O694        C712   1.274       .  A
O694       Cd703   2.045       .  S
O695        C709   1.275       .  A
O695       Cd699   2.064       .  S
O696        C707   1.279       .  A
O696       Cd699   2.162   1_655  S
Zn697       O708   1.925       .  S
Zn697       O710   1.909       .  S
Zn697       O702   1.827       .  S
O698        C709   1.274       .  A
O698       Cd703   2.051       .  S
Cd699       O701   2.086   1_455  S
Cd699       O702   2.027       .  S
Cd700       O704   2.118       .  S
Cd700       O713   2.080       .  S
Cd700       O702   2.035       .  S
O701        C711   1.280       .  A
O702       Cd703   2.032       .  S
Cd703       O705   2.143       .  S
O704        C711   1.286   1_455  A
C706        O710   1.262       .  A
C712        O713   1.279       .  A
O714        C730   1.263       .  A
O714       Zn720   1.925       .  S
C715        O731   1.261       .  A
C715        O728   1.279       .  A
O716        C729   1.279       .  A
O716       Cd723   2.182       .  S
O717        C735   1.280       .  A
O717       Cd726   2.086       .  S
O718        C732   1.274       .  A
O718       Cd722   2.051       .  S
O719        C730   1.271       .  A
O719       Cd722   2.143       .  S
Zn720       O731   1.903   1_655  S
Zn720       O733   1.909       .  S
Zn720       O725   1.827       .  S
O721        C732   1.275       .  A
O721       Cd726   2.064       .  S
Cd722       O724   2.045       .  S
Cd722       O725   2.032       .  S
Cd723       O727   2.080       .  S
Cd723       O725   2.035       .  S
O724        C734   1.275       .  A
O725       Cd726   2.027       .  S
Cd726       O728   2.162   1_655  S
O727        C734   1.279       .  A
C729        O733   1.262       .  A
