geometry optimzed in LAMMPS
_audit_creation_date              2020-12-01 
_audit_creation_method            'lammps2cif' 
_symmetry_space_group_name_H-M    'P1' 
_symmetry_Int_Tables_number       1 
_symmetry_cell_setting            triclinic 
loop_ 
_symmetry_equiv_pos_as_xyz 
  x,y,z 
_cell_length_a                    35.40327768 
_cell_length_b                    35.14301270358752 
_cell_length_c                    29.770961081703753 
_cell_angle_alpha                 90.6726231954862 
_cell_angle_beta                  90.35768617194258 
_cell_angle_gamma                 89.5381087501384 
loop_ 
_atom_site_label 
_atom_site_type_symbol 
_atom_site_fract_x 
_atom_site_fract_y 
_atom_site_fract_z 
_atom_site_charge 
O1          O  0.50964766  0.81258769  0.07852322    -0.81600
C2          C  0.46633557  0.75643361  0.23875390     0.97700
O3          O  0.45801059  0.78533346  0.21539682    -0.70800
O4          O  0.47077350  0.83646888  0.15305333    -0.74300
Al5        Al  0.45670212  0.78478658  0.15134953     1.49000
C6          C  0.50035960  0.85368993  0.16435982     0.93000
O7          O  0.57926467  0.77425814  0.16751165    -0.80600
O8          O  0.54366465  0.70230870  0.12309996    -0.74100
Al9        Al  0.54079079  0.79195188  0.12597035     1.90100
O10         O  0.55035582  0.73172362  0.20824426    -0.73200
O11         O  0.47195031  0.69778142  0.13135496    -0.73000
O12         O  0.47786549  0.72572285  0.22034352    -0.78700
O13         O  0.42822702  0.73846896  0.14977325    -0.76900
O14         O  0.50324137  0.76502549  0.14931129    -1.13000
O15         O  0.45466120  0.78437339  0.08756128    -0.72200
C16         C  0.47950715  0.79848300  0.06230489     0.98500
C17         C  0.57935734  0.75052614  0.19922574     0.94900
Al18       Al  0.51026977  0.71822016  0.16927975     1.55600
O19         O  0.53169172  0.83595999  0.16478647    -0.76900
C20         C  0.43788681  0.70782759  0.13084092     0.99000
C21         C  0.55648848  0.71768667  0.08843159     0.93900
O22         O  0.55460297  0.75322079  0.08356166    -0.82200
O23         O  0.80362165  0.51911692  0.47600818    -0.81600
C24         C  0.75035574  0.46947944  0.31519844     0.97700
O25         O  0.77743213  0.46083702  0.34110178    -0.70800
O26         O  0.82688017  0.47443721  0.40488074    -0.74300
Al27       Al  0.77487283  0.46343448  0.40439245     1.49000
C28         C  0.84579399  0.50233659  0.39212407     0.93000
O29         O  0.77230798  0.58637970  0.38044214    -0.80600
O30         O  0.69855483  0.55831208  0.42016655    -0.74100
Al31       Al  0.78647398  0.54886113  0.42533401     1.90100
O32         O  0.73179640  0.55574486  0.33747510    -0.73200
O33         O  0.68844449  0.48589262  0.41701845    -0.73000
O34         O  0.71987792  0.48365239  0.33040904    -0.78700
O35         O  0.72683319  0.43837784  0.40475598    -0.76900
O36         O  0.75825406  0.51134592  0.40249812    -1.13000
O37         O  0.77332638  0.46460563  0.46743521    -0.72200
C38         C  0.78937936  0.48916857  0.49224780     0.98500
C39         C  0.75080476  0.58492226  0.34622983     0.94900
Al40       Al  0.71333214  0.52018530  0.37820751     1.55600
O41         O  0.83044309  0.53497333  0.38969930    -0.76900
C42         C  0.69575195  0.45095142  0.41910953     0.99000
C43         C  0.71309016  0.57139882  0.45578914     0.93900
O44         O  0.74774494  0.56700286  0.46415013    -0.82200
O45         O  0.55593242  0.21988446  0.56675940    -0.81600
C46         C  0.46861679  0.20917159  0.72285570     0.97700
O47         O  0.48167470  0.24015652  0.70846266    -0.70800
O48         O  0.55361533  0.23388426  0.69516200    -0.74300
Al49       Al  0.51320315  0.25011505  0.65803153     1.49000
C50         C  0.58338443  0.21703435  0.68317092     0.93000
O51         O  0.53909367  0.13542887  0.64469953    -0.80600
O52         O  0.45929922  0.18435811  0.56955930    -0.74100
Al53       Al  0.54540743  0.17938948  0.60721837     1.90100
O54         O  0.47795881  0.13242107  0.63370553    -0.73200
O55         O  0.43183270  0.22921496  0.63355113    -0.73000
O56         O  0.46106776  0.18179384  0.69652033    -0.78700
O57         O  0.47353598  0.27345342  0.62390581    -0.76900
O58         O  0.50693968  0.20455404  0.63299334    -1.13000
O59         O  0.54615792  0.26810966  0.61307469    -0.72200
C60         C  0.55833988  0.25495592  0.57624183     0.98500
C61         C  0.50849934  0.11701647  0.64586107     0.94900
Al62       Al  0.46127514  0.18364343  0.63322541     1.55600
O63         O  0.58418639  0.19707562  0.64771011    -0.76900
C64         C  0.43977655  0.26259010  0.62273071     0.99000
C65         C  0.48389183  0.16877839  0.54456162     0.93900
O66         O  0.51516648  0.15724744  0.56022037    -0.82200
O67         O  0.73258063  0.40359423  0.95660713    -0.81600
C68         C  0.74559902  0.50051814  0.81161995     0.97700
O69         O  0.71433362  0.48583518  0.82270764    -0.70800
O70         O  0.71942696  0.41274262  0.83291067    -0.74300
Al71       Al  0.70219164  0.45252614  0.87109796     1.49000
C72         C  0.74005928  0.38445052  0.84139284     0.93000
O73         O  0.81823764  0.43385411  0.88901485    -0.80600
O74         O  0.75861294  0.50564890  0.96607497    -0.74100
Al75       Al  0.77309174  0.42128917  0.92149131     1.90100
O76         O  0.81665539  0.49414835  0.90710332    -0.73200
O77         O  0.71793393  0.53506196  0.89965223    -0.73000
O78         O  0.77041235  0.50963879  0.84043140    -0.78700
O79         O  0.67666754  0.49036863  0.90600999    -0.76900
O80         O  0.74640200  0.45968328  0.89814072    -1.13000
O81         O  0.68360765  0.41809155  0.91421686    -0.72200
C82         C  0.69767264  0.40233379  0.94835616     0.98500
C83         C  0.83473758  0.46548057  0.89310646     0.94900
Al84       Al  0.76438101  0.50704895  0.90296147     1.55600
O85         O  0.76161325  0.38435650  0.87530573    -0.76900
C86         C  0.68537821  0.52472641  0.91001625     0.99000
C87         C  0.77276936  0.48008039  0.99080221     0.93900
O88         O  0.78799781  0.45031251  0.97403255    -0.82200
O89         O  0.44241774  0.16918947  0.06021510    -0.81600
C90         C  0.48575529  0.21723673  0.22700404     0.97700
O91         O  0.49364655  0.18988035  0.20067536    -0.70800
O92         O  0.47910950  0.14167399  0.13522097    -0.74300
Al93       Al  0.49396881  0.19360929  0.13714613     1.49000
C94         C  0.44868275  0.12525386  0.14475143     0.93000
O95         O  0.37071231  0.20461150  0.14704747    -0.80600
O96         O  0.40411499  0.27613473  0.11979525    -0.74100
Al97       Al  0.41055939  0.18872012  0.10710410     1.90100
O98         O  0.39979963  0.23762762  0.19965133    -0.73200
O99         O  0.47589942  0.28253490  0.12928779    -0.73000
O100        O  0.47208959  0.24808309  0.21243506    -0.78700
O101        O  0.52080779  0.24062844  0.13937163    -0.76900
O102        O  0.44743511  0.21317688  0.13618406    -1.13000
O103        O  0.49690262  0.19681367  0.07377579    -0.72200
C104        C  0.47303763  0.18313688  0.04649971     0.98500
C105        C  0.37027440  0.22244615  0.18415753     0.94900
Al106      Al  0.43874350  0.25746431  0.16328560     1.55600
O107        O  0.41746836  0.14314917  0.14226712    -0.76900
C108        C  0.51000853  0.27283195  0.12609355     0.99000
C109        C  0.39591928  0.26542735  0.08041921     0.93900
O110        O  0.40018759  0.23102968  0.06838863    -0.82200
O111        O  0.15842273  0.45848322  0.47493481    -0.81600
C112        C  0.21149486  0.50070806  0.31207547     0.97700
O113        O  0.18469305  0.51008757  0.33782029    -0.70800
O114        O  0.13536386  0.49718518  0.40000051    -0.74300
Al115      Al  0.18712207  0.51001285  0.40140356     1.49000
C116        C  0.11785921  0.46752938  0.38854550     0.93000
O117        O  0.19346535  0.38528985  0.38807863    -0.80600
O118        O  0.26454536  0.41643456  0.42021745    -0.74100
Al119      Al  0.17795861  0.42597814  0.42816779     1.90100
O120        O  0.22847472  0.41372488  0.33827456    -0.73200
O121        O  0.27421099  0.48825364  0.41314970    -0.73000
O122        O  0.24160239  0.48610042  0.32748091    -0.78700
O123        O  0.23492555  0.53536585  0.40257940    -0.76900
O124        O  0.20450687  0.46236815  0.40178662    -1.13000
O125        O  0.18842844  0.51234843  0.46507827    -0.72200
C126        C  0.17246780  0.48893486  0.49053095     0.98500
C127        C  0.21235202  0.38434138  0.35218517     0.94900
Al128      Al  0.24862961  0.45205216  0.37664974     1.55600
O129        O  0.13397855  0.43515842  0.39054002    -0.76900
C130        C  0.26608313  0.52296531  0.41709012     0.99000
C131        C  0.25262340  0.40830492  0.45870085     0.93900
O132        O  0.21837264  0.41363553  0.46900983    -0.82200
O133        O  0.20716197  0.57374030  0.96739049    -0.81600
C134        C  0.19692373  0.47987861  0.81436510     0.97700
O135        O  0.22802010  0.49259772  0.82939196    -0.70800
O136        O  0.22034194  0.56541383  0.84002119    -0.74300
Al137      Al  0.23751741  0.52680759  0.87880865     1.49000
C138        C  0.20331486  0.59559957  0.85091279     0.93000
O139        O  0.12198730  0.55007362  0.89186230    -0.80600
O140        O  0.17536378  0.47342020  0.96729360    -0.74100
Al141      Al  0.16678008  0.55934541  0.92802983     1.90100
O142        O  0.12140192  0.48891018  0.90415449    -0.73200
O143        O  0.21923172  0.44543671  0.90315057    -0.73000
O144        O  0.16986325  0.47263869  0.84034455    -0.78700
O145        O  0.26168400  0.48882677  0.91511219    -0.76900
O146        O  0.19253301  0.52047382  0.90341209    -1.13000
O147        O  0.25493513  0.56263367  0.92230430    -0.72200
C148        C  0.24167754  0.57703788  0.95792870     0.98500
C149        C  0.10440405  0.51883327  0.89253399     0.94900
Al150      Al  0.17301809  0.47392164  0.90376830     1.55600
O151        O  0.18251286  0.59709370  0.88530627    -0.76900
C152        C  0.25193817  0.45448256  0.91568460     0.99000
C153        C  0.16040341  0.49844732  0.99258642     0.93900
O154        O  0.14777572  0.52956707  0.97706584    -0.82200
O155        O  0.40480621  0.74453642  0.59063582    -0.81600
C156        C  0.49945828  0.75452538  0.74095094     0.97700
O157        O  0.48561184  0.72323432  0.72706783    -0.70800
O158        O  0.41289357  0.72991570  0.71726080    -0.74300
Al159      Al  0.45141711  0.71301882  0.67783906     1.49000
C160        C  0.38335635  0.74806416  0.70726640     0.93000
O161        O  0.42977159  0.82916857  0.66648877    -0.80600
O162        O  0.50324971  0.77435317  0.58663964    -0.74100
Al163      Al  0.41940689  0.78461545  0.63001290     1.90100
O164        O  0.49002321  0.82917062  0.65065765    -0.73200
O165        O  0.53250275  0.73065882  0.65055362    -0.73000
O166        O  0.50723307  0.78088041  0.71402360    -0.78700
O167        O  0.48835780  0.68879941  0.64097850    -0.76900
O168        O  0.45796012  0.75818424  0.65321164    -1.13000
O169        O  0.41603280  0.69539770  0.63386552    -0.72200
C170        C  0.40222155  0.70949786  0.59848446     0.98500
C171        C  0.46081896  0.84660562  0.66363376     0.94900
Al172      Al  0.50444716  0.77720674  0.65069990     1.55600
O173        O  0.38225700  0.76916684  0.67320242    -0.76900
C174        C  0.52225598  0.69832696  0.63735422     0.99000
C175        C  0.47804733  0.79045292  0.56291438     0.93900
O176        O  0.44814127  0.80382261  0.58046781    -0.82200
C177        C  0.30587917  0.71644254  0.78747414     0.16100
C178        C  0.28639545  0.70198945  0.82442341    -0.32900
C179        C  0.25577664  0.67768879  0.81579725     0.20500
C180        C  0.24486829  0.66832010  0.77228789     0.02700
C181        C  0.26316491  0.68428988  0.73534487    -0.22700
C182        C  0.29395630  0.70839158  0.74397053     0.11900
S183        S  0.34788267  0.74025651  0.79068866    -0.06300
C184        C  0.34878851  0.74047374  0.73282686    -0.09800
C185        C  0.31806243  0.72280837  0.71254907    -0.26400
S186        S  0.21268272  0.63223416  0.76891193    -0.03600
C187        C  0.21326512  0.63031147  0.82674524    -0.17000
C188        C  0.23700960  0.65669567  0.84708734    -0.15000
H189        H  0.29627106  0.70734760  0.85842083     0.20300
H190        H  0.25542223  0.67620435  0.70130485     0.16400
H191        H  0.31543206  0.71759676  0.67672121     0.18900
H192        H  0.24375856  0.65714134  0.88265633     0.12200
C193        C  0.34408202  0.65553855  0.50948343     0.16100
C194        C  0.31878701  0.64412290  0.47558422    -0.32900
C195        C  0.31418872  0.60491898  0.46813312     0.20500
C196        C  0.33444393  0.57827745  0.49270618     0.02700
C197        C  0.35952879  0.58968021  0.52668447    -0.22700
C198        C  0.36355809  0.62878194  0.53471965     0.11900
S199        S  0.35306687  0.70165667  0.52469679    -0.06300
C200        C  0.38256564  0.68453109  0.56619444    -0.09800
C201        C  0.38551192  0.64524231  0.56739965    -0.26400
S202        S  0.32454373  0.53210907  0.47919939    -0.03600
C203        C  0.29211735  0.54876516  0.44070322    -0.17000
C204        C  0.28960754  0.58808967  0.43836860    -0.15000
H205        H  0.30288484  0.66492130  0.45631263     0.20300
H206        H  0.37482261  0.56887105  0.54661075     0.16400
H207        H  0.40270834  0.62949794  0.59120346     0.18900
H208        H  0.27013052  0.60351635  0.41682993     0.12200
C209        C  0.16875626  0.46818598  0.69093772     0.16100
C210        C  0.15136774  0.45961290  0.64971094    -0.32900
C211        C  0.16414265  0.47881837  0.61174052     0.20500
C212        C  0.19245891  0.50580009  0.61471382     0.02700
C213        C  0.20998878  0.51415366  0.65581142    -0.22700
C214        C  0.19776360  0.49442377  0.69354560     0.11900
S215        S  0.15669049  0.44906720  0.74132540    -0.06300
C216        C  0.19173307  0.47612457  0.76572172    -0.09800
C217        C  0.21139463  0.49868206  0.73624257    -0.26400
S218        S  0.20500160  0.52489123  0.56464214    -0.03600
C219        C  0.17258346  0.49535860  0.53920397    -0.17000
C220        C  0.15256219  0.47273311  0.56838473    -0.15000
H221        H  0.12913690  0.43870399  0.64726358     0.20300
H222        H  0.23252041  0.53474253  0.65817679     0.16400
H223        H  0.23331255  0.51854279  0.74592623     0.18900
H224        H  0.13214620  0.45148581  0.55816818     0.12200
C225        C  0.15481578  0.50276264  0.12018580     0.16100
C226        C  0.14697189  0.51259665  0.16498641    -0.32900
C227        C  0.17576542  0.50684042  0.19686172     0.20500
C228        C  0.21068064  0.49198663  0.18460589     0.02700
C229        C  0.21816555  0.48134859  0.14017483    -0.22700
C230        C  0.18943105  0.48689210  0.10845566     0.11900
S231        S  0.12561478  0.51153374  0.07553096    -0.06300
C232        C  0.16036005  0.49309189  0.04116803    -0.09800
C233        C  0.19239064  0.48042619  0.06331100    -0.26400
S234        S  0.24186673  0.48684727  0.22779894    -0.03600
C235        C  0.20728584  0.50391240  0.26324904    -0.17000
C236        C  0.17363343  0.51384071  0.24217569    -0.15000
H237        H  0.11995051  0.52482232  0.17442595     0.20300
H238        H  0.24538204  0.46965951  0.13064149     0.16400
H239        H  0.21775279  0.47012027  0.04685780     0.18900
H240        H  0.14847110  0.52383451  0.25930172     0.12200
C241        C  0.36339811  0.35318785  0.01492669     0.16100
C242        C  0.35447925  0.39056373  0.00214853    -0.32900
C243        C  0.32472733  0.39570703  0.97139320     0.20500
C244        C  0.30542689  0.36481704  0.95345125     0.02700
C245        C  0.31521438  0.32739268  0.96506351    -0.22700
C246        C  0.34434778  0.32228103  0.99660116     0.11900
S247        S  0.39477706  0.34158179  0.05625272    -0.06300
C248        C  0.38192438  0.29462998  0.04922049    -0.09800
C249        C  0.35538586  0.28837487  0.01559499    -0.26400
S250        S  0.26780549  0.37685455  0.92044809    -0.03600
C251        C  0.27782510  0.42407465  0.93095472    -0.17000
C252        C  0.30932018  0.42992356  0.95809377    -0.15000
H253        H  0.36882749  0.41465910  0.01725490     0.20300
H254        H  0.29951896  0.30341847  0.95178769     0.16400
H255        H  0.34314448  0.26098510  0.00751829     0.18900
H256        H  0.31910232  0.45754797  0.96944626     0.12200
C257        C  0.25785860  0.29269883  0.31034331     0.16100
C258        C  0.28522976  0.26375386  0.30593199    -0.32900
C259        C  0.29731348  0.25407151  0.26240723     0.20500
C260        C  0.28083650  0.27053357  0.22488511     0.02700
C261        C  0.25350366  0.29939461  0.22930595    -0.22700
C262        C  0.24339225  0.31094254  0.27284855     0.11900
S263        S  0.24436140  0.31289038  0.36019971    -0.06300
C264        C  0.22106291  0.34768597  0.33027843    -0.09800
C265        C  0.22265711  0.34283136  0.28407936    -0.26400
S266        S  0.30120712  0.25750653  0.17529135    -0.03600
C267        C  0.33401253  0.23173991  0.20534401    -0.17000
C268        C  0.32828939  0.23206074  0.25140687    -0.15000
H269        H  0.29855081  0.25139058  0.33526831     0.20300
H270        H  0.24271521  0.31416384  0.20011855     0.16400
H271        H  0.21187372  0.36319701  0.26006063     0.18900
H272        H  0.34751632  0.21956650  0.27566830     0.12200
C273        C  0.99599546  0.52220266  0.87564285     0.16100
C274        C  0.95734342  0.53174565  0.87584378    -0.32900
C275        C  0.93109574  0.50182727  0.87661814     0.20500
C276        C  0.94266352  0.46405810  0.87582756     0.02700
C277        C  0.98119869  0.45455715  0.87488771    -0.22700
C278        C  0.00739962  0.48440081  0.87543716     0.11900
S279        S  0.03263170  0.55398200  0.87946267    -0.06300
C280        C  0.06350298  0.51582940  0.88195386    -0.09800
C281        C  0.04584290  0.48065840  0.87874530    -0.26400
S282        S  0.90656495  0.43198548  0.87954443    -0.03600
C283        C  0.87546974  0.46979310  0.88339409    -0.17000
C284        C  0.89260803  0.50523876  0.88082953    -0.15000
H285        H  0.94812093  0.56125878  0.87720641     0.20300
H286        H  0.99044947  0.42504286  0.87553935     0.16400
H287        H  0.06037686  0.45342462  0.88080227     0.18900
H288        H  0.87772032  0.53226501  0.88348401     0.12200
C289        C  0.56824445  0.34261015  0.05821567     0.16100
C290        C  0.58052627  0.37033381  0.02836305    -0.32900
C291        C  0.61830000  0.36854301  0.01462661     0.20500
C292        C  0.64302523  0.34093207  0.03054947     0.02700
C293        C  0.63070377  0.31312075  0.06028622    -0.22700
C294        C  0.59275266  0.31452747  0.07342322     0.11900
S295        S  0.52299310  0.33856799  0.07689060    -0.06300
C296        C  0.53711466  0.29820393  0.10480911    -0.09800
C297        C  0.57503895  0.28895321  0.10023168    -0.26400
S298        S  0.68784207  0.34393548  0.01008486    -0.03600
C299        C  0.67276094  0.38220151  0.97900053    -0.17000
C300        C  0.63515142  0.39213122  0.98467206    -0.15000
H301        H  0.56137070  0.39186782  0.01578825     0.20300
H302        H  0.64965290  0.29108766  0.07210388     0.16400
H303        H  0.58856770  0.26404816  0.11430993     0.18900
H304        H  0.62102021  0.41544976  0.96792521     0.12200
C305        C  0.51443197  0.00969931  0.66850151     0.16100
C306        C  0.52439912  0.97105462  0.66943603    -0.32900
C307        C  0.49517715  0.94448195  0.67325816     0.20500
C308        C  0.45767581  0.95562000  0.67691108     0.02700
C309        C  0.44776666  0.99430738  0.67678632    -0.22700
C310        C  0.47691959  0.02084696  0.67202726     0.11900
S311        S  0.54514757  0.04632565  0.65942445    -0.06300
C312        C  0.50687017  0.07681714  0.65937839    -0.09800
C313        C  0.47252954  0.05923028  0.66720614    -0.26400
S314        S  0.42633651  0.91860927  0.67776700    -0.03600
C315        C  0.46420560  0.88787193  0.67247004    -0.17000
C316        C  0.49904041  0.90580881  0.67105958    -0.15000
H317        H  0.55356426  0.96196898  0.66554632     0.20300
H318        H  0.41841276  0.00331273  0.67849657     0.16400
H319        H  0.44531542  0.07364925  0.66719954     0.18900
H320        H  0.52590952  0.89127308  0.66651015     0.12200
C321        C  0.34970401  0.31521231  0.58545850     0.16100
C322        C  0.31250525  0.32479268  0.57294263    -0.32900
C323        C  0.30741119  0.35482678  0.54274717     0.20500
C324        C  0.33809556  0.37480966  0.52675302     0.02700
C325        C  0.37505489  0.36606669  0.54040361    -0.22700
C326        C  0.38019472  0.33555642  0.56964871     0.11900
S327        S  0.36216607  0.27676488  0.61685033    -0.06300
C328        C  0.40889977  0.28805599  0.60826829    -0.09800
C329        C  0.41425986  0.32043771  0.58311680    -0.26400
S330        S  0.32707958  0.40721116  0.48677586    -0.03600
C331        C  0.28060014  0.39369243  0.49098252    -0.17000
C332        C  0.27394986  0.36607751  0.52281581    -0.15000
H333        H  0.28879640  0.30835063  0.58444312     0.20300
H334        H  0.39892013  0.38115494  0.52696730     0.16400
H335        H  0.44153293  0.33106858  0.57312339     0.18900
H336        H  0.24675553  0.35328985  0.52885730     0.12200
C337        C  0.65854461  0.25037660  0.76591904     0.16100
C338        C  0.67527904  0.26639506  0.80447741    -0.32900
C339        C  0.70141670  0.29575998  0.79863699     0.20500
C340        C  0.71120307  0.30803581  0.75620648     0.02700
C341        C  0.69618375  0.29038055  0.71754916    -0.22700
C342        C  0.66928228  0.26168112  0.72341770     0.11900
S343        S  0.61975221  0.22168326  0.76634574    -0.06300
C344        C  0.61815417  0.22461852  0.70870755    -0.09800
C345        C  0.64677645  0.24611591  0.69038836    -0.26400
S346        S  0.73665740  0.34931249  0.75642181    -0.03600
C347        C  0.73466863  0.34962837  0.81425129    -0.17000
C348        C  0.71557809  0.31898504  0.83197443    -0.15000
H349        H  0.66586537  0.25865669  0.83767614     0.20300
H350        H  0.70265307  0.30084271  0.68440547     0.16400
H351        H  0.64816151  0.25375237  0.65527070     0.18900
H352        H  0.70860539  0.31635215  0.86719219     0.12200
C353        C  0.49139138  0.16207566  0.41793598     0.16100
C354        C  0.50338229  0.15501249  0.37379702    -0.32900
C355        C  0.49528722  0.18294091  0.34181256     0.20500
C356        C  0.47668565  0.21647545  0.35358715     0.02700
C357        C  0.46421561  0.22317809  0.39730018    -0.22700
C358        C  0.47161646  0.19509933  0.42892622     0.11900
S359        S  0.50150223  0.13394136  0.46275300    -0.06300
C360        C  0.47837230  0.16699075  0.49608201    -0.09800
C361        C  0.46322268  0.19758964  0.47346850    -0.26400
S362        S  0.46884835  0.24672380  0.31059551    -0.03600
C363        C  0.48941226  0.21333181  0.27563424    -0.17000
C364        C  0.50276277  0.18092082  0.29672932    -0.15000
H365        H  0.51855214  0.12915131  0.36489926     0.20300
H366        H  0.44942366  0.24922954  0.40629742     0.16400
H367        H  0.45005400  0.22213496  0.48941569     0.18900
H368        H  0.51539192  0.15657813  0.27977260     0.12200
C369        C  0.45572162  0.18151064  0.84519782     0.16100
C370        C  0.44756586  0.16331184  0.88544383    -0.32900
C371        C  0.46432289  0.17770079  0.92474386     0.20500
C372        C  0.48837633  0.20865571  0.92415880     0.02700
C373        C  0.49617101  0.22719298  0.88395001    -0.23500
C374        C  0.47911258  0.21297914  0.84467159     0.11900
S375        S  0.43964423  0.16722811  0.79363763    -0.06300
C376        C  0.46420643  0.20444347  0.77126190    -0.09800
C377        C  0.48373722  0.22655718  0.80229678    -0.26400
S378        S  0.50535987  0.22198060  0.97569690    -0.03600
C379        C  0.47920120  0.18584131  0.99815176    -0.17000
C380        C  0.45882023  0.16460203  0.96715854    -0.15000
H381        H  0.42907094  0.13895806  0.88609329     0.20300
H382        H  0.51463441  0.25158543  0.88330183     0.16400
H383        H  0.50174507  0.25021164  0.79403411     0.18900
H384        H  0.43987882  0.14172432  0.97544564     0.12200
C385        C  0.01626590  0.50019397  0.36460291     0.16100
C386        C  0.98311512  0.52245473  0.36232741    -0.32900
C387        C  0.94851120  0.50423431  0.36908787     0.20500
C388        C  0.94727217  0.46533924  0.37630418     0.02700
C389        C  0.98029975  0.44300685  0.37771339    -0.22700
C390        C  0.01490789  0.46138196  0.37237041     0.11900
S391        S  0.06082935  0.51787712  0.36341541    -0.06300
C392        C  0.07798028  0.47280202  0.37492640    -0.09800
C393        C  0.05029636  0.44531383  0.37777928    -0.26400
S394        S  0.90336050  0.44863457  0.38656491    -0.03600
C395        C  0.88601615  0.49454447  0.38202201    -0.17000
C396        C  0.91328148  0.52130942  0.37217188    -0.15000
H397        H  0.98440812  0.55291975  0.35763668     0.20300
H398        H  0.97913107  0.41288879  0.38476922     0.16400
H399        H  0.05551303  0.41595289  0.38668991     0.18900
H400        H  0.90792752  0.55154055  0.36911766     0.12200
C401        C  0.62515868  0.39239695  0.48592639     0.16100
C402        C  0.60016698  0.37882731  0.51820767    -0.32900
C403        C  0.59506036  0.33934329  0.52038894     0.20500
C404        C  0.61317640  0.31437010  0.49110727     0.02700
C405        C  0.63811367  0.32797205  0.45867259    -0.22700
C406        C  0.64400991  0.36742966  0.45726599     0.11900
S407        S  0.63709108  0.43908987  0.47980758    -0.06300
C408        C  0.66866079  0.42468500  0.43913995    -0.09800
C409        C  0.66914792  0.38582793  0.43044623    -0.26400
S410        S  0.60385027  0.26734488  0.50041780    -0.03600
C411        C  0.57606812  0.28158268  0.54496570    -0.17000
C412        C  0.57382107  0.32072587  0.55126842    -0.15000
H413        H  0.58614920  0.39808801  0.54144471     0.20300
H414        H  0.65307827  0.30861930  0.43642848     0.16400
H415        H  0.68767438  0.37171592  0.40663752     0.18900
H416        H  0.55813246  0.33484049  0.57784144     0.12200
C417        C  0.76902545  0.47055019  0.61484885     0.16100
C418        C  0.75112784  0.45988365  0.65428206    -0.32900
C419        C  0.75737867  0.48232206  0.69255267     0.20500
C420        C  0.78157541  0.51316714  0.69239771     0.02700
C421        C  0.79968030  0.52382700  0.65281511    -0.22700
C422        C  0.79233114  0.50209249  0.61394298     0.11900
S423        S  0.76163556  0.44915849  0.56414644    -0.06300
C424        C  0.78906930  0.48384669  0.54089568    -0.09800
C425        C  0.80414627  0.50981749  0.57135220    -0.26400
S426        S  0.78631575  0.53558574  0.74333653    -0.03600
C427        C  0.75424637  0.50379316  0.76405592    -0.17000
C428        C  0.74129310  0.47711775  0.73336336    -0.15000
H429        H  0.73221218  0.43584375  0.65478333     0.20300
H430        H  0.81785956  0.54842112  0.65209308     0.16400
H431        H  0.82073722  0.53432927  0.56247982     0.18900
H432        H  0.72227343  0.45412294  0.74103015     0.12200
C433        C  0.74949407  0.49306560  0.11499935     0.16100
C434        C  0.73239262  0.50144756  0.15619684    -0.32900
C435        C  0.74648057  0.48283080  0.19417796     0.20500
C436        C  0.77670535  0.45755942  0.19164279     0.02700
C437        C  0.79362114  0.44893698  0.15035238    -0.22700
C438        C  0.77911682  0.46708056  0.11219603     0.11900
S439        S  0.73585733  0.51180685  0.06480990    -0.06300
C440        C  0.77004517  0.48385494  0.03971864    -0.09800
C441        C  0.79088069  0.46149401  0.06895766    -0.26400
S442        S  0.79079204  0.43957152  0.24215537    -0.03600
C443        C  0.75486690  0.46563127  0.26655647    -0.17000
C444        C  0.73362034  0.48728850  0.23701711    -0.15000
H445        H  0.70900869  0.52140596  0.15852108     0.20300
H446        H  0.81695855  0.42894845  0.14804098     0.16400
H447        H  0.81280045  0.44154048  0.05895256     0.18900
H448        H  0.71093887  0.50651756  0.24667314     0.12200
C449        C  0.58186050  0.63022426  0.56588267     0.16100
C450        C  0.59453508  0.60479992  0.53271735    -0.32900
C451        C  0.63302655  0.60509001  0.52231187     0.20500
C452        C  0.65823502  0.62874785  0.54468233     0.02700
C453        C  0.64552886  0.65430593  0.57795260    -0.22700
C454        C  0.60670780  0.65474500  0.58753241     0.11900
S455        S  0.53572575  0.63600208  0.58085094    -0.06300
C456        C  0.54974674  0.67270083  0.61566212    -0.09800
C457        C  0.58836291  0.67929476  0.61621417    -0.26400
S458        S  0.70396911  0.62420324  0.52685561    -0.03600
C459        C  0.68840193  0.59098885  0.48811699    -0.17000
C460        C  0.65009641  0.58366068  0.48966795    -0.15000
H461        H  0.57510394  0.58630162  0.51498687     0.20300
H462        H  0.66480326  0.67352808  0.59481470     0.16400
H463        H  0.60202385  0.70183268  0.63513999     0.18900
H464        H  0.63552448  0.56350894  0.46809336     0.12200
C465        C  0.50191899  0.96316539  0.17909566     0.16100
C466        C  0.51117517  0.00196323  0.17897425    -0.32900
C467        C  0.48173014  0.02854098  0.17228187     0.20500
C468        C  0.44451882  0.01729284  0.16715984     0.02700
C469        C  0.43515868  0.97860274  0.16839225    -0.22700
C470        C  0.46469886  0.95200958  0.17393940     0.11900
S471        S  0.53381555  0.92596369  0.18101178    -0.06300
C472        C  0.49657736  0.89510149  0.17397037    -0.09800
C473        C  0.46150696  0.91326672  0.17159721    -0.26400
S474        S  0.41343950  0.05385557  0.15601247    -0.03600
C475        C  0.45110916  0.08460134  0.15737468    -0.17000
C476        C  0.48556476  0.06701142  0.16699805    -0.15000
H477        H  0.54031230  0.01098921  0.18189619     0.20300
H478        H  0.40625334  0.96946109  0.16323736     0.16400
H479        H  0.43492059  0.89885383  0.16581431     0.18900
H480        H  0.51246735  0.08151539  0.16833134     0.12200
C481        C  0.29935242  0.63775631  0.04193446     0.16100
C482        C  0.31279306  0.66266724  0.07561026    -0.32900
C483        C  0.35218619  0.66613602  0.08063473     0.20500
C484        C  0.37692269  0.64557985  0.05355027     0.02700
C485        C  0.36353128  0.62133602  0.01958093    -0.22700
C486        C  0.32437333  0.61801747  0.01444891     0.11900
S487        S  0.25275414  0.62846953  0.03051126    -0.06300
C488        C  0.26750102  0.59804554  0.98809144    -0.09800
C489        C  0.30634733  0.59560671  0.98340859    -0.26400
S490        S  0.42353622  0.65302025  0.06494433    -0.03600
C491        C  0.40989706  0.68475756  0.10627802    -0.17000
C492        C  0.37105052  0.68906575  0.11085759    -0.15000
H493        H  0.29349685  0.67849319  0.09695196     0.20300
H494        H  0.38282336  0.60562059  0.99813272     0.16400
H495        H  0.32074029  0.57804664  0.95867363     0.18900
H496        H  0.35744371  0.70819054  0.13461103     0.12200
C497        C  0.61348018  0.58545787  0.97494036     0.16100
C498        C  0.58722836  0.59847115  0.00666283    -0.32900
C499        C  0.58696325  0.63739493  0.01743945     0.20500
C500        C  0.61067647  0.66272440  0.99637682     0.02700
C501        C  0.63679286  0.64973472  0.96422254    -0.22700
C502        C  0.63806855  0.61044558  0.95469602     0.11900
S503        S  0.62079648  0.53870351  0.96108525    -0.06300
C504        C  0.65837689  0.55260739  0.92896167    -0.09800
C505        C  0.66395083  0.59169301  0.92816796    -0.26400
S506        S  0.60652139  0.70872376  0.01564411    -0.03600
C507        C  0.57361248  0.69314009  0.05354244    -0.17000
C508        C  0.56579321  0.65462962  0.05023334    -0.15000
H509        H  0.56889447  0.57884264  0.02364817     0.20300
H510        H  0.65628014  0.66912754  0.94871420     0.16400
H511        H  0.68683642  0.60545930  0.91086700     0.18900
H512        H  0.54614796  0.63982041  0.07146933     0.12200
C513        C  0.65864551  0.71410084  0.27584459     0.16100
C514        C  0.67966315  0.70048820  0.31263165    -0.32900
C515        C  0.70541413  0.67041538  0.30489962     0.20500
C516        C  0.71004772  0.65466873  0.26236993     0.02700
C517        C  0.68996746  0.66906170  0.22540054    -0.22700
C518        C  0.66421802  0.69901497  0.23315230     0.11900
S519        S  0.62186458  0.74612014  0.27916131    -0.06300
C520        C  0.61476883  0.73995861  0.22222062    -0.09800
C521        C  0.63948517  0.71408502  0.20230641    -0.26400
S522        S  0.73721793  0.61421848  0.26121207    -0.03600
C523        C  0.74294778  0.61857991  0.31861796    -0.17000
C524        C  0.72488043  0.65027783  0.33710677    -0.15000
H525        H  0.67464482  0.71143421  0.34628168     0.20300
H526        H  0.69272099  0.65602570  0.19237285     0.16400
H527        H  0.63728093  0.70435793  0.16768592     0.18900
H528        H  0.72225743  0.65561518  0.37289747     0.12200
C529        C  0.50866312  0.78918852  0.86280544     0.16100
C530        C  0.51437317  0.81021764  0.90258903    -0.32900
C531        C  0.49493034  0.79870684  0.94103140     0.20500
C532        C  0.47061160  0.76796546  0.93976001     0.02700
C533        C  0.46540856  0.74664084  0.90027244    -0.22700
C534        C  0.48516250  0.75781371  0.86209018     0.11900
S535        S  0.52739605  0.79984059  0.81171692    -0.06300
C536        C  0.50364285  0.76127359  0.78949579    -0.09800
C537        C  0.48270140  0.74132670  0.82038119    -0.26400
S538        S  0.45016605  0.75797356  0.98989055    -0.03600
C539        C  0.47544713  0.79487730  0.01336201    -0.17000
C540        C  0.49795129  0.81422809  0.98335753    -0.15000
H541        H  0.53298195  0.83450964  0.90350055     0.20300
H542        H  0.44677536  0.72237411  0.89934999     0.16400
H543        H  0.46462151  0.71749647  0.81215768     0.18900
H544        H  0.51691514  0.83711416  0.99249195     0.12200
C545        C  0.46930023  0.80191941  0.43601288     0.16100
C546        C  0.45813347  0.81234746  0.39249764    -0.32900
C547        C  0.46379674  0.78568511  0.35765924     0.20500
C548        C  0.47973720  0.75025980  0.36596756     0.02700
C549        C  0.49150853  0.74012948  0.40923291    -0.22700
C550        C  0.48609900  0.76681679  0.44393244     0.11900
S551        S  0.46162772  0.82859478  0.48340530    -0.06300
C552        C  0.48173505  0.79226689  0.51398655    -0.09800
C553        C  0.49397674  0.76140637  0.48854909    -0.26400
S554        S  0.48439115  0.72188530  0.31960401    -0.03600
C555        C  0.46543150  0.75830273  0.28816523    -0.17000
C556        C  0.45554487  0.79055705  0.31289381    -0.15000
H557        H  0.44513390  0.83975420  0.38620810     0.20300
H558        H  0.50403343  0.71251426  0.41562433     0.16400
H559        H  0.50529738  0.73527400  0.50231097     0.18900
H560        H  0.44429371  0.81654693  0.29873453     0.12200
loop_ 
_geom_bond_atom_site_label_1 
_geom_bond_atom_site_label_2 
_geom_bond_distance 
_geom_bond_site_symmetry_2 
_ccdc_geom_bond_type 
O1           C16   1.270       .  A
O1           Al9   1.931       .  S
C2           O12   1.270       .  A
C2            O3   1.269       .  A
C2          C555   1.472       .  S
O3           Al5   1.907       .  S
O4            C6   1.256       .  A
O4           Al5   1.887       .  S
Al5          O13   1.921       .  S
Al5          O15   1.900       .  S
Al5          O14   1.784       .  S
C6           O19   1.268       .  A
C6          C472   1.485       .  S
O7           C17   1.267       .  A
O7           Al9   1.938       .  S
O8           C21   1.259       .  A
O8          Al18   1.895       .  S
Al9          O22   1.909       .  S
Al9          O19   1.946       .  S
Al9          O14   1.787       .  S
O10          C17   1.258       .  A
O10         Al18   1.887       .  S
O11          C20   1.254       .  A
O11         Al18   1.900       .  S
O12         Al18   1.925       .  S
O13          C20   1.256       .  A
O14         Al18   1.771       .  S
O15          C16   1.268       .  A
C16         C539   1.467       .  S
C17         C520   1.472       .  S
C20         C491   1.471       .  S
C21          O22   1.260       .  A
C21         C507   1.473       .  S
O23          C38   1.272       .  A
O23         Al31   1.937       .  S
C24          O34   1.269       .  A
C24          O25   1.264       .  A
C24         C443   1.462       .  S
O25         Al27   1.888       .  S
O26          C28   1.256       .  A
O26         Al27   1.884       .  S
Al27         O35   1.922       .  S
Al27         O37   1.878       .  S
Al27         O36   1.781       .  S
C28          O41   1.268       .  A
C28         C395   1.480       .  S
O29          C39   1.269       .  A
O29         Al31   1.949       .  S
O30          C43   1.260       .  A
O30         Al40   1.894       .  S
Al31         O44   1.900       .  S
Al31         O41   1.945       .  S
Al31         O36   1.786       .  S
O32          C39   1.255       .  A
O32         Al40   1.876       .  S
O33          C42   1.255       .  A
O33         Al40   1.904       .  S
O34         Al40   1.919       .  S
O35          C42   1.258       .  A
O36         Al40   1.770       .  S
O37          C38   1.266       .  A
C38         C424   1.463       .  S
C39         C523   1.472       .  S
C42         C408   1.470       .  S
C43          O44   1.259       .  A
C43         C459   1.466       .  S
O45          C60   1.265       .  A
O45         Al53   1.916       .  S
C46          O56   1.263       .  A
C46          O47   1.267       .  A
C46         C376   1.462       .  S
O47         Al49   1.914       .  S
O48          C50   1.256       .  A
O48         Al49   1.891       .  S
Al49         O57   1.913       .  S
Al49         O59   1.898       .  S
Al49         O58   1.773       .  S
C50          O63   1.261       .  A
C50         C344   1.467       .  S
O51          C61   1.267       .  A
O51         Al53   1.932       .  S
O52          C65   1.266       .  A
O52         Al62   1.897       .  S
Al53         O66   1.918       .  S
Al53         O63   1.924       .  S
Al53         O58   1.790       .  S
O54          C61   1.258       .  A
O54         Al62   1.890       .  S
O55          C64   1.255       .  A
O55         Al62   1.904       .  S
O56         Al62   1.886       .  S
O57          C64   1.258       .  A
O58         Al62   1.781       .  S
O59          C60   1.262       .  A
C60         C411   1.474       .  S
C61         C312   1.475       .  S
C64         C328   1.473       .  S
C65          O66   1.264       .  A
C65         C360   1.456       .  S
O67          C82   1.260       .  A
O67         Al75   1.893       .  S
C68          O78   1.264       .  A
C68          O69   1.272       .  A
C68         C427   1.457       .  S
O69         Al71   1.920       .  S
O70          C72   1.256       .  A
O70         Al71   1.891       .  S
Al71         O79   1.904       .  S
Al71         O81   1.899       .  S
Al71         O80   1.774       .  S
C72          O85   1.262       .  A
C72         C347   1.472       .  S
O73          C83   1.264       .  A
O73         Al75   1.930       .  S
O74          C87   1.267       .  A
O74         Al84   1.893       .  S
Al75         O88   1.930       .  S
Al75         O85   1.924       .  S
Al75         O80   1.786       .  S
O76          C83   1.258       .  A
O76         Al84   1.905       .  S
O77          C86   1.253       .  A
O77         Al84   1.912       .  S
O78         Al84   1.878       .  S
O79          C86   1.253       .  A
O80         Al84   1.791       .  S
O81          C82   1.261       .  A
C82         C299   1.465       .  S
C83         C283   1.482       .  S
C86         C504   1.473       .  S
C87          O88   1.271       .  A
C87         C440   1.464   1_556  S
O89         C104   1.265       .  A
O89         Al97   1.917       .  S
C90         O100   1.264       .  A
C90          O91   1.264       .  A
C90         C363   1.461       .  S
O91         Al93   1.898       .  S
O92          C94   1.262       .  A
O92         Al93   1.904       .  S
Al93        O101   1.913       .  S
Al93        O103   1.895       .  S
Al93        O102   1.780       .  S
C94         O107   1.269       .  A
C94         C475   1.483       .  S
O95         C105   1.264       .  A
O95         Al97   1.926       .  S
O96         C109   1.260       .  A
O96        Al106   1.897       .  S
Al97        O110   1.924       .  S
Al97        O107   1.937       .  S
Al97        O102   1.783       .  S
O98         C105   1.260       .  A
O98        Al106   1.900       .  S
O99         C108   1.256       .  A
O99        Al106   1.894       .  S
O100       Al106   1.904       .  S
O101        C108   1.259       .  A
O102       Al106   1.770       .  S
O103        C104   1.262       .  A
C104        C379   1.461   1_554  S
C105        C267   1.467       .  S
C108        C296   1.467       .  S
C109        O110   1.265       .  A
C109        C248   1.473       .  S
O111        C126   1.266       .  A
O111       Al119   1.919       .  S
C112        O122   1.265       .  A
C112        O113   1.263       .  A
C112        C235   1.466       .  S
O113       Al115   1.894       .  S
O114        C116   1.259       .  A
O114       Al115   1.891       .  S
Al115       O123   1.919       .  S
Al115       O125   1.897       .  S
Al115       O124   1.779       .  S
C116        O129   1.270       .  A
C116        C392   1.477       .  S
O117        C127   1.264       .  A
O117       Al119   1.930       .  S
O118        C131   1.260       .  A
O118       Al128   1.893       .  S
Al119       O132   1.922       .  S
Al119       O129   1.940       .  S
Al119       O124   1.785       .  S
O120        C127   1.259       .  A
O120       Al128   1.897       .  S
O121        C130   1.255       .  A
O121       Al128   1.896       .  S
O122       Al128   1.915       .  S
O123        C130   1.259       .  A
O124       Al128   1.769       .  S
O125        C126   1.264       .  A
C126        C219   1.464       .  S
C127        C264   1.468       .  S
C130        C203   1.468       .  S
C131        O132   1.265       .  A
C131        C331   1.470       .  S
O133        C148   1.262       .  A
O133       Al141   1.910       .  S
C134        O144   1.264       .  A
C134        O135   1.268       .  A
C134        C216   1.463       .  S
O135       Al137   1.919       .  S
O136        C138   1.256       .  A
O136       Al137   1.886       .  S
Al137       O145   1.920       .  S
Al137       O147   1.899       .  S
Al137       O146   1.774       .  S
C138        O151   1.265       .  A
C138        C187   1.470       .  S
O139        C149   1.267       .  A
O139       Al141   1.939       .  S
O140        C153   1.266       .  A
O140       Al150   1.893       .  S
Al141       O154   1.934       .  S
Al141       O151   1.936       .  S
Al141       O146   1.789       .  S
O142        C149   1.258       .  A
O142       Al150   1.898       .  S
O143        C152   1.257       .  A
O143       Al150   1.911       .  S
O144       Al150   1.891       .  S
O145        C152   1.258       .  A
O146       Al150   1.781       .  S
O147        C148   1.261       .  A
C148        C488   1.474       .  S
C149        C280   1.484       .  S
C152        C251   1.476       .  S
C153        O154   1.269       .  A
C153        C232   1.461   1_556  S
O155        C170   1.260       .  A
O155       Al163   1.895       .  S
C156        O166   1.265       .  A
C156        O157   1.271       .  A
C156        C536   1.469       .  S
O157       Al159   1.927       .  S
O158        C160   1.256       .  A
O158       Al159   1.892       .  S
Al159       O167   1.902       .  S
Al159       O169   1.908       .  S
Al159       O168   1.774       .  S
C160        O173   1.264       .  A
C160        C184   1.473       .  S
O161        C171   1.267       .  A
O161       Al163   1.931       .  S
O162        C175   1.268       .  A
O162       Al172   1.909       .  S
Al163       O176   1.929       .  S
Al163       O173   1.931       .  S
Al163       O168   1.785       .  S
O164        C171   1.258       .  A
O164       Al172   1.892       .  S
O165        C174   1.254       .  A
O165       Al172   1.907       .  S
O166       Al172   1.890       .  S
O167        C174   1.254       .  A
O168       Al172   1.784       .  S
O169        C170   1.263       .  A
C170        C200   1.470       .  S
C171        C315   1.477       .  S
C174        C456   1.468       .  S
C175        O176   1.268       .  A
C175        C552   1.465       .  S
C177        S183   1.714       .  A
C177        C182   1.386       .  A
C177        C178   1.404       .  A
C178        C179   1.406       .  A
C178        H189   1.084       .  S
C179        C188   1.373       .  A
C179        C180   1.386       .  A
C180        S186   1.713       .  A
C180        C181   1.405       .  A
C181        C182   1.406       .  A
C181        H190   1.083       .  S
C182        C185   1.374       .  A
S183        C184   1.723       .  A
C184        C185   1.388       .  A
C185        H191   1.084       .  S
S186        C187   1.724       .  A
C187        C188   1.388       .  A
C188        H192   1.084       .  S
C193        S199   1.709       .  A
C193        C198   1.387       .  A
C193        C194   1.402       .  A
C194        C195   1.404       .  A
C194        H205   1.086       .  S
C195        C204   1.371       .  A
C195        C196   1.387       .  A
C196        S202   1.706       .  A
C196        C197   1.399       .  A
C197        C198   1.400       .  A
C197        H206   1.086       .  S
C198        C201   1.367       .  A
S199        C200   1.723       .  A
C200        C201   1.385       .  A
C201        H207   1.085       .  S
S202        C203   1.721       .  A
C203        C204   1.387       .  A
C204        H208   1.085       .  S
C209        S215   1.709       .  A
C209        C214   1.387       .  A
C209        C210   1.400       .  A
C210        C211   1.403       .  A
C210        H221   1.083       .  S
C211        C220   1.367       .  A
C211        C212   1.387       .  A
C212        S218   1.705       .  A
C212        C213   1.398       .  A
C213        C214   1.400       .  A
C213        H222   1.083       .  S
C214        C217   1.364       .  A
S215        C216   1.721       .  A
C216        C217   1.384       .  A
C217        H223   1.083       .  S
S218        C219   1.720       .  A
C219        C220   1.386       .  A
C220        H224   1.083       .  S
C225        S231   1.708       .  A
C225        C230   1.387       .  A
C225        C226   1.403       .  A
C226        C227   1.403       .  A
C226        H237   1.083       .  S
C227        C236   1.371       .  A
C227        C228   1.387       .  A
C228        S234   1.700       .  A
C228        C229   1.397       .  A
C229        C230   1.398       .  A
C229        H238   1.083       .  S
C230        C233   1.365       .  A
S231        C232   1.723       .  A
C232        C233   1.381       .  A
C233        H239   1.083       .  S
S234        C235   1.721       .  A
C235        C236   1.387       .  A
C236        H240   1.083       .  S
C241        S247   1.703       .  A
C241        C246   1.388   1_554  A
C241        C242   1.405       .  A
C242        C243   1.403   1_554  A
C242        H253   1.083       .  S
C243        C252   1.378       .  A
C243        C244   1.387       .  A
C244        S250   1.704       .  A
C244        C245   1.404       .  A
C245        C246   1.402       .  A
C245        H254   1.083       .  S
C246        C249   1.378   1_556  A
S247        C248   1.725       .  A
C248        C249   1.386       .  A
C249        H255   1.083       .  S
S250        C251   1.724       .  A
C251        C252   1.388       .  A
C252        H256   1.083       .  S
C257        S263   1.707       .  A
C257        C262   1.387       .  A
C257        C258   1.405       .  A
C258        C259   1.404       .  A
C258        H269   1.084       .  S
C259        C268   1.376       .  A
C259        C260   1.387       .  A
C260        S266   1.703       .  A
C260        C261   1.402       .  A
C261        C262   1.402       .  A
C261        H270   1.083       .  S
C262        C265   1.374       .  A
S263        C264   1.723       .  A
C264        C265   1.385       .  A
C265        H271   1.083       .  S
S266        C267   1.720       .  A
C267        C268   1.387       .  A
C268        H272   1.084       .  S
C273        S279   1.721   1_655  A
C273        C278   1.385   1_655  A
C273        C274   1.406       .  A
C274        C275   1.409       .  A
C274        H285   1.085       .  S
C275        C284   1.373       .  A
C275        C276   1.386       .  A
C276        S282   1.716       .  A
C276        C277   1.402       .  A
C277        C278   1.406   1_655  A
C277        H286   1.086       .  S
C278        C281   1.369       .  A
S279        C280   1.725       .  A
C280        C281   1.392       .  A
C281        H287   1.085       .  S
S282        C283   1.722       .  A
C283        C284   1.393       .  A
C284        H288   1.085       .  S
C289        S295   1.707       .  A
C289        C294   1.387       .  A
C289        C290   1.400       .  A
C290        C291   1.402       .  A
C290        H301   1.081       .  S
C291        C300   1.368   1_554  A
C291        C292   1.387       .  A
C292        S298   1.708       .  A
C292        C293   1.400       .  A
C293        C294   1.402       .  A
C293        H302   1.081       .  S
C294        C297   1.368       .  A
S295        C296   1.722       .  A
C296        C297   1.386       .  A
C297        H303   1.082       .  S
S298        C299   1.721   1_554  A
C299        C300   1.385       .  A
C300        H304   1.082       .  S
C305        S311   1.717       .  A
C305        C310   1.386       .  A
C305        C306   1.401   1_545  A
C306        C307   1.405       .  A
C306        H317   1.085       .  S
C307        C316   1.366       .  A
C307        C308   1.386       .  A
C308        S314   1.717       .  A
C308        C309   1.401       .  A
C309        C310   1.406   1_565  A
C309        H318   1.085   1_565  S
C310        C313   1.366       .  A
S311        C312   1.721       .  A
C312        C313   1.390       .  A
C313        H319   1.085       .  S
S314        C315   1.722       .  A
C315        C316   1.391       .  A
C316        H320   1.085       .  S
C321        S327   1.705       .  A
C321        C326   1.387       .  A
C321        C322   1.406       .  A
C322        C323   1.404       .  A
C322        H333   1.082       .  S
C323        C332   1.379       .  A
C323        C324   1.388       .  A
C324        S330   1.698       .  A
C324        C325   1.401       .  A
C325        C326   1.399       .  A
C325        H334   1.082       .  S
C326        C329   1.373       .  A
S327        C328   1.726       .  A
C328        C329   1.385       .  A
C329        H335   1.083       .  S
S330        C331   1.722       .  A
C331        C332   1.387       .  A
C332        H336   1.083       .  S
C337        S343   1.711       .  A
C337        C342   1.387       .  A
C337        C338   1.403       .  A
C338        C339   1.405       .  A
C338        H349   1.083       .  S
C339        C348   1.373       .  A
C339        C340   1.387       .  A
C340        S346   1.714       .  A
C340        C341   1.405       .  A
C341        C342   1.406       .  A
C341        H350   1.083       .  S
C342        C345   1.373       .  A
S343        C344   1.721       .  A
C344        C345   1.387       .  A
C345        H351   1.084       .  S
S346        C347   1.723       .  A
C347        C348   1.387       .  A
C348        H352   1.084       .  S
C353        S359   1.704       .  A
C353        C358   1.387       .  A
C353        C354   1.402       .  A
C354        C355   1.402       .  A
C354        H365   1.083       .  S
C355        C364   1.371       .  A
C355        C356   1.388       .  A
C356        S362   1.693       .  A
C356        C357   1.394       .  A
C357        C358   1.394       .  A
C357        H366   1.083       .  S
C358        C361   1.362       .  A
S359        C360   1.724       .  A
C360        C361   1.379       .  A
C361        H367   1.083       .  S
S362        C363   1.720       .  A
C363        C364   1.385       .  A
C364        H368   1.083       .  S
C369        S375   1.705       .  A
C369        C374   1.387       .  A
C369        C370   1.398       .  A
C370        C371   1.400       .  A
C370        H381   1.082       .  S
C371        C380   1.365       .  A
C371        C372   1.387       .  A
C372        S378   1.706       .  A
C372        C373   1.400       .  A
C373        C374   1.401       .  A
C373        H382   1.083       .  S
C374        C377   1.365       .  A
S375        C376   1.719       .  A
C376        C377   1.385       .  A
C377        H383   1.083       .  S
S378        C379   1.722       .  A
C379        C380   1.383       .  A
C380        H384   1.083       .  S
C385        S391   1.701       .  A
C385        C390   1.387       .  A
C385        C386   1.407   1_455  A
C386        C387   1.404       .  A
C386        H397   1.083       .  S
C387        C396   1.383       .  A
C387        C388   1.387       .  A
C388        S394   1.697       .  A
C388        C389   1.404       .  A
C389        C390   1.400   1_655  A
C389        H398   1.083       .  S
C390        C393   1.379       .  A
S391        C392   1.729       .  A
C392        C393   1.385       .  A
C393        H399   1.083       .  S
S394        C395   1.728       .  A
C395        C396   1.388       .  A
C396        H400   1.082       .  S
C401        S407   1.710       .  A
C401        C406   1.387       .  A
C401        C402   1.401       .  A
C402        C403   1.403       .  A
C402        H413   1.082       .  S
C403        C412   1.367       .  A
C403        C404   1.386       .  A
C404        S410   1.714       .  A
C404        C405   1.403       .  A
C405        C406   1.405       .  A
C405        H414   1.082       .  S
C406        C409   1.370       .  A
S407        C408   1.722       .  A
C408        C409   1.387       .  A
C409        H415   1.082       .  S
S410        C411   1.723       .  A
C411        C412   1.388       .  A
C412        H416   1.083       .  S
C417        S423   1.698       .  A
C417        C422   1.388       .  A
C417        C418   1.394       .  A
C418        C419   1.396       .  A
C418        H429   1.083       .  S
C419        C428   1.360       .  A
C419        C420   1.387       .  A
C420        S426   1.709       .  A
C420        C421   1.401       .  A
C421        C422   1.403       .  A
C421        H430   1.082       .  S
C422        C425   1.369       .  A
S423        C424   1.719       .  A
C424        C425   1.387       .  A
C425        H431   1.083       .  S
S426        C427   1.721       .  A
C427        C428   1.380       .  A
C428        H432   1.083       .  S
C433        S439   1.705       .  A
C433        C438   1.387       .  A
C433        C434   1.398       .  A
C434        C435   1.400       .  A
C434        H445   1.083       .  S
C435        C444   1.364       .  A
C435        C436   1.387       .  A
C436        S442   1.708       .  A
C436        C437   1.400       .  A
C437        C438   1.402       .  A
C437        H446   1.082       .  S
C438        C441   1.367       .  A
S439        C440   1.721       .  A
C440        C441   1.385       .  A
C441        H447   1.083       .  S
S442        C443   1.721       .  A
C443        C444   1.384       .  A
C444        H448   1.083       .  S
C449        S455   1.706       .  A
C449        C454   1.387       .  A
C449        C450   1.397       .  A
C450        C451   1.400       .  A
C450        H461   1.081       .  S
C451        C460   1.364       .  A
C451        C452   1.387       .  A
C452        S458   1.713       .  A
C452        C453   1.403       .  A
C453        C454   1.405       .  A
C453        H462   1.081       .  S
C454        C457   1.370       .  A
S455        C456   1.719       .  A
C456        C457   1.388       .  A
C457        H463   1.082       .  S
S458        C459   1.723       .  A
C459        C460   1.384       .  A
C460        H464   1.082       .  S
C465        S471   1.722       .  A
C465        C470   1.385       .  A
C465        C466   1.405   1_565  A
C466        C467   1.409       .  A
C466        H477   1.084       .  S
C467        C476   1.371       .  A
C467        C468   1.385       .  A
C468        S474   1.719       .  A
C468        C469   1.403   1_545  A
C469        C470   1.407       .  A
C469        H478   1.085       .  S
C470        C473   1.368       .  A
S471        C472   1.724       .  A
C472        C473   1.393       .  A
C473        H479   1.084       .  S
S474        C475   1.723       .  A
C475        C476   1.393       .  A
C476        H480   1.084       .  S
C481        S487   1.715       .  A
C481        C486   1.386       .  A
C481        C482   1.406       .  A
C482        C483   1.408       .  A
C482        H493   1.082       .  S
C483        C492   1.374       .  A
C483        C484   1.387       .  A
C484        S490   1.704       .  A
C484        C485   1.398       .  A
C485        C486   1.399       .  A
C485        H494   1.082   1_554  S
C486        C489   1.366   1_554  A
S487        C488   1.726   1_554  A
C488        C489   1.385       .  A
C489        H495   1.082       .  S
S490        C491   1.720       .  A
C491        C492   1.390       .  A
C492        H496   1.082       .  S
C497        S503   1.707       .  A
C497        C502   1.387       .  A
C497        C498   1.400   1_556  A
C498        C499   1.401       .  A
C498        H509   1.083       .  S
C499        C508   1.367       .  A
C499        C500   1.386   1_554  A
C500        S506   1.714   1_556  A
C500        C501   1.405       .  A
C501        C502   1.407       .  A
C501        H510   1.083       .  S
C502        C505   1.373       .  A
S503        C504   1.721       .  A
C504        C505   1.390       .  A
C505        H511   1.083       .  S
S506        C507   1.724       .  A
C507        C508   1.386       .  A
C508        H512   1.083       .  S
C513        S519   1.717       .  A
C513        C518   1.386       .  A
C513        C514   1.407       .  A
C514        C515   1.408       .  A
C514        H525   1.084       .  S
C515        C524   1.377       .  A
C515        C516   1.386       .  A
C516        S522   1.710       .  A
C516        C517   1.404       .  A
C517        C518   1.405       .  A
C517        H526   1.084       .  S
C518        C521   1.373       .  A
S519        C520   1.724       .  A
C520        C521   1.387       .  A
C521        H527   1.085       .  S
S522        C523   1.725       .  A
C523        C524   1.390       .  A
C524        H528   1.084       .  S
C529        S535   1.710       .  A
C529        C534   1.387       .  A
C529        C530   1.403       .  A
C530        C531   1.404       .  A
C530        H541   1.083       .  S
C531        C540   1.371       .  A
C531        C532   1.387       .  A
C532        S538   1.704       .  A
C532        C533   1.399       .  A
C533        C534   1.400       .  A
C533        H542   1.082       .  S
C534        C537   1.367       .  A
S535        C536   1.724       .  A
C536        C537   1.385       .  A
C537        H543   1.083       .  S
S538        C539   1.721   1_556  A
C539        C540   1.388   1_554  A
C540        H544   1.083       .  S
C545        S551   1.707       .  A
C545        C550   1.387       .  A
C545        C546   1.404       .  A
C546        C547   1.404       .  A
C546        H557   1.082       .  S
C547        C556   1.375       .  A
C547        C548   1.387       .  A
C548        S554   1.701       .  A
C548        C549   1.400       .  A
C549        C550   1.400       .  A
C549        H558   1.082       .  S
C550        C553   1.371       .  A
S551        C552   1.723       .  A
C552        C553   1.384       .  A
C553        H559   1.083       .  S
S554        C555   1.724       .  A
C555        C556   1.388       .  A
C556        H560   1.082       .  S
