geometry optimzed in LAMMPS
_audit_creation_date              2020-12-01 
_audit_creation_method            'lammps2cif' 
_symmetry_space_group_name_H-M    'P1' 
_symmetry_Int_Tables_number       1 
_symmetry_cell_setting            triclinic 
loop_ 
_symmetry_equiv_pos_as_xyz 
  x,y,z 
_cell_length_a                    50.16758215 
_cell_length_b                    50.546190394428436 
_cell_length_c                    29.46628903725199 
_cell_angle_alpha                 89.82628457852843 
_cell_angle_beta                  90.35168655725192 
_cell_angle_gamma                 89.66552023346708 
loop_ 
_atom_site_label 
_atom_site_type_symbol 
_atom_site_fract_x 
_atom_site_fract_y 
_atom_site_fract_z 
_atom_site_charge 
Fe1        Fe  0.54981393  0.72557296  0.96189406     1.65800
Fe2        Fe  0.57713151  0.67157238  0.91348242     1.73200
Fe3        Fe  0.61217725  0.70456283  0.99339207     1.54400
O4          O  0.61557337  0.74406750  0.97815645    -0.81600
O5          O  0.60037464  0.64529606  0.95037248    -0.80000
O6          O  0.57371492  0.75884127  0.97133857    -0.84200
O7          O  0.54876993  0.72018902  0.03014956    -0.79000
O8          O  0.63713060  0.69642863  0.93800906    -0.80800
O9          O  0.54347804  0.65736117  0.94465757    -0.83500
C10         C  0.56632436  0.71758076  0.06093634     0.97200
C11         C  0.59858873  0.76269971  0.97647823     1.04700
O12         O  0.57980312  0.70076426  0.95645977    -1.12500
O13         O  0.55391185  0.69215348  0.86795852    -0.74900
O14         O  0.54774899  0.73311126  0.89303485    -0.78400
O15         O  0.59083119  0.71329603  0.05230401    -0.79100
C16         C  0.54603059  0.71573044  0.86224364     0.96100
O17         O  0.52168408  0.69542303  0.95614299    -0.77100
O18         O  0.61015934  0.68495410  0.88056617    -0.82300
C19         C  0.61089815  0.64489441  0.98947944     0.98800
C20         C  0.63288136  0.69132376  0.89614905     1.04700
O21         O  0.61257433  0.66540036  0.01384508    -0.77900
C22         C  0.52248944  0.67021009  0.95489467     1.03000
Fe23       Fe  0.75366768  0.52346745  0.58383512     1.65800
Fe24       Fe  0.69458210  0.54565604  0.62495557     1.73200
Fe25       Fe  0.72827840  0.58326753  0.54854120     1.54400
O26         O  0.76784481  0.58912591  0.56353250    -0.81600
O27         O  0.66700160  0.56249137  0.58131851    -0.80000
O28         O  0.78548899  0.54949112  0.57747296    -0.84200
O29         O  0.74993110  0.52106147  0.51491619    -0.79000
O30         O  0.71883489  0.60765391  0.60351860    -0.80800
O31         O  0.68622374  0.50976287  0.59669974    -0.83500
C32         C  0.74395126  0.53717934  0.48330210     0.97200
C33         C  0.78773032  0.57415077  0.57049741     1.04700
O34         O  0.72562816  0.55102046  0.58583155    -1.12500
O35         O  0.71680071  0.52782790  0.67563829    -0.74900
O36         O  0.75890035  0.52334103  0.65336649    -0.78400
O37         O  0.73737434  0.56126618  0.49040003    -0.79100
C38         C  0.74101956  0.52210747  0.68362179     0.96100
O39         O  0.72676587  0.49244029  0.58818680    -0.77100
O40         O  0.70027950  0.58130943  0.65589054    -0.82300
C41         C  0.66735734  0.57613310  0.54523062     0.98800
C42         C  0.70841717  0.60368689  0.64235446     1.04700
O43         O  0.68902137  0.58321718  0.52738081    -0.77900
C44         C  0.70155365  0.49031470  0.58924897     1.03000
Fe45       Fe  0.55240886  0.24294783  0.46818425     1.65800
Fe46       Fe  0.57762321  0.29646422  0.41689072     1.73200
Fe47       Fe  0.61554232  0.26299158  0.49217380     1.54400
O48         O  0.59650564  0.25293799  0.55290056    -0.81600
O49         O  0.60924055  0.28328817  0.37982063    -0.80000
O50         O  0.55303847  0.24999502  0.53627031    -0.84200
O51         O  0.57713437  0.20965409  0.47754044    -0.79000
O52         O  0.61540108  0.30144100  0.51429255    -0.80800
O53         O  0.55261453  0.27576663  0.37385975    -0.83500
C54         C  0.60224181  0.20556628  0.47684026     0.97200
C55         C  0.57212098  0.25129972  0.56450929     1.04700
O56         O  0.58201433  0.26722312  0.45912528    -1.12500
O57         O  0.54587316  0.31064826  0.45275022    -0.74900
O58         O  0.52362504  0.27316250  0.46260551    -0.78400
O59         O  0.61889355  0.22419193  0.47401665    -0.79100
C60         C  0.52469857  0.29840795  0.46249936     0.96100
O61         O  0.54947235  0.23464470  0.39959344    -0.77100
O62         O  0.60196040  0.32227086  0.45227587    -0.82300
C63         C  0.63260761  0.27740175  0.39328076     0.98800
C64         C  0.61280046  0.32243557  0.49117448     1.04700
O65         O  0.63837285  0.27264579  0.43482431    -0.77900
C66         C  0.54613324  0.25172690  0.36837054     1.03000
Fe67       Fe  0.75396072  0.44273440  0.08362628     1.65800
Fe68       Fe  0.69538469  0.41893360  0.12020949     1.73200
Fe69       Fe  0.73111357  0.38314528  0.04515622     1.54400
O70         O  0.74246638  0.40540553  0.98873356    -0.81600
O71         O  0.70455775  0.38479260  0.15446094    -0.80000
O72         O  0.75303505  0.44560256  0.01462325    -0.84200
O73         O  0.78657845  0.41690404  0.08000839    -0.79000
O74         O  0.69294114  0.38445028  0.01938055    -0.80800
O75         O  0.71402532  0.44122279  0.16948327    -0.83500
C76         C  0.78939270  0.39226278  0.07254089     0.97200
C77         C  0.74892593  0.42950969  0.98248488     1.04700
O78         O  0.72709540  0.41470398  0.08290567    -1.12500
O79         O  0.68510209  0.45286905  0.08637042    -0.74900
O80         O  0.72468967  0.47263282  0.08480224    -0.78400
O81         O  0.76992281  0.37712935  0.06462204    -0.79100
C82         C  0.69933445  0.47318760  0.08004557     0.96100
O83         O  0.75712645  0.44263811  0.15363617    -0.77100
O84         O  0.67020374  0.39784769  0.07872457    -0.82300
C85         C  0.71065683  0.36212135  0.13881402     0.98800
C86         C  0.67124410  0.38675026  0.04039274     1.04700
O87         O  0.71935020  0.35832139  0.09861832    -0.77900
C88         C  0.73776130  0.44706310  0.17999098     1.03000
Fe89       Fe  0.47579469  0.23364614  0.96237497     1.65800
Fe90       Fe  0.45009037  0.28959059  0.91673107     1.73200
Fe91       Fe  0.41427922  0.25641358  0.99375220     1.54400
O92         O  0.40969001  0.21743243  0.97726025    -0.81600
O93         O  0.42595747  0.31545170  0.95255395    -0.80000
O94         O  0.45059274  0.20103706  0.96646074    -0.84200
O95         O  0.47670458  0.23601435  0.03174312    -0.79000
O96         O  0.38999314  0.26644174  0.93756749    -0.80800
O97         O  0.48271488  0.30234240  0.95218707    -0.83500
C98         C  0.45940307  0.24014773  0.06212685     0.97200
C99         C  0.42564783  0.19815182  0.97229652     1.04700
O100        O  0.44662850  0.25954767  0.95779929    -1.12500
O101        O  0.47515442  0.27048183  0.87246212    -0.74900
O102        O  0.47852695  0.22841898  0.89273144    -0.78400
O103        O  0.43530987  0.24641727  0.05292175    -0.79100
C104        C  0.48309234  0.24709997  0.86515238     0.96100
O105        O  0.50432349  0.26372429  0.96105415    -0.77100
O106        O  0.41759419  0.27700748  0.88072933    -0.82300
C107        C  0.41562626  0.31566125  0.99163517     0.98800
C108        C  0.39449729  0.27186541  0.89584766     1.04700
O109        O  0.41508344  0.29499768  0.01571323    -0.77900
C110        C  0.50356843  0.28900188  0.96198604     1.03000
Fe111      Fe  0.26551556  0.43880990  0.57748593     1.65800
Fe112      Fe  0.32633801  0.42162667  0.62141616     1.73200
Fe113      Fe  0.29415174  0.37983955  0.55035417     1.54400
O114        O  0.25345377  0.37552460  0.55670288    -0.81600
O115        O  0.35376261  0.41185763  0.57253467    -0.80000
O116        O  0.23694724  0.41075751  0.59183229    -0.84200
O117        O  0.26178255  0.43258766  0.50843503    -0.79000
O118        O  0.29916908  0.35804292  0.60971339    -0.80800
O119        O  0.32832991  0.46032294  0.59915403    -0.83500
C120        C  0.27483646  0.41966975  0.47897881     0.97200
C121        C  0.23446776  0.38761694  0.57602917     1.04700
O122        O  0.29529469  0.41344609  0.58345453    -1.12500
O123        O  0.30333906  0.43284193  0.67533827    -0.74900
O124        O  0.26603154  0.44914826  0.64511971    -0.78400
O125        O  0.28983882  0.40011775  0.48934309    -0.79100
C126        C  0.28171298  0.44578161  0.67852405     0.96100
O127        O  0.29050689  0.46987632  0.56264452    -0.77100
O128        O  0.32779837  0.38365494  0.64785939    -0.82300
C129        C  0.35490113  0.39171252  0.54724566     0.98800
C130        C  0.31565451  0.36186561  0.64206411     1.04700
O131        O  0.33464881  0.37769616  0.53886531    -0.77900
C132        C  0.31378417  0.47597006  0.57580247     1.03000
Fe133      Fe  0.46943230  0.72359701  0.45656980     1.65800
Fe134      Fe  0.44116019  0.66887348  0.41445057     1.73200
Fe135      Fe  0.40823448  0.70425838  0.49355413     1.54400
O136        O  0.43170749  0.71284339  0.55114470    -0.81600
O137        O  0.40816764  0.68276562  0.38093044    -0.80000
O138        O  0.47260418  0.72007157  0.52478634    -0.84200
O139        O  0.44579202  0.75773579  0.46339690    -0.79000
O140        O  0.40740409  0.66562913  0.51554032    -0.80800
O141        O  0.46539442  0.68710712  0.36751350    -0.83500
C142        C  0.42115516  0.76210221  0.47074135     0.97200
C143        C  0.45650137  0.71755643  0.55722819     1.04700
O144        O  0.43943656  0.69915234  0.45512360    -1.12500
O145        O  0.47442509  0.65466416  0.44754604    -0.74900
O146        O  0.49719786  0.69246490  0.45227517    -0.78400
O147        O  0.40467016  0.74362887  0.47736914    -0.79100
C148        C  0.49598971  0.66721601  0.45421533     0.96100
O149        O  0.46924326  0.72900409  0.38743244    -0.77100
O150        O  0.41705335  0.64431981  0.45253848    -0.82300
C151        C  0.38572210  0.68969474  0.39703568     0.98800
C152        C  0.40663873  0.64500660  0.49154572     1.04700
O153        O  0.38223079  0.69581350  0.43879801    -0.77900
C154        C  0.47284084  0.71052610  0.35927343     1.03000
Fe155      Fe  0.27044741  0.51871056  0.08016968     1.65800
Fe156      Fe  0.33011048  0.54049300  0.12141383     1.73200
Fe157      Fe  0.29457861  0.57929166  0.04728489     1.54400
O158        O  0.28554514  0.55853541  0.98780366    -0.81600
O159        O  0.32470184  0.57605807  0.15311506    -0.80000
O160        O  0.27074760  0.51933382  0.01129858    -0.84200
O161        O  0.23806976  0.54504550  0.08047303    -0.79000
O162        O  0.33369604  0.58068579  0.02656487    -0.80800
O163        O  0.30914531  0.52232431  0.17288067    -0.83500
C164        C  0.23534813  0.56946114  0.07084252     0.97200
C165        C  0.27637932  0.53545938  0.98000602     1.04700
O166        O  0.29826371  0.54630332  0.08306973    -1.12500
O167        O  0.33843249  0.50451659  0.09259837    -0.74900
O168        O  0.29830431  0.48796391  0.07692594    -0.78400
O169        O  0.25492130  0.58401350  0.06110525    -0.79100
C170        C  0.32352440  0.48570530  0.08011413     0.96100
O171        O  0.26761808  0.51465070  0.14961609    -0.77100
O172        O  0.35682531  0.55759989  0.07717074    -0.82300
C173        C  0.31503265  0.59843438  0.14188135     0.98800
C174        C  0.35567883  0.57268846  0.04279811     1.04700
O175        O  0.30331294  0.60281094  0.10395052    -0.77900
C176        C  0.28565491  0.51422095  0.17996380     1.03000
Fe177      Fe  0.04760643  0.22606828  0.47985879     1.65800
Fe178      Fe  0.07097767  0.17127592  0.42879016     1.73200
Fe179      Fe  0.10882846  0.20159334  0.50747852     1.54400
O180        O  0.11471898  0.24036843  0.48977261    -0.81600
O181        O  0.09297424  0.14382379  0.46546038    -0.80000
O182        O  0.07362864  0.25723404  0.49276127    -0.84200
O183        O  0.04602298  0.21838691  0.54776035    -0.79000
O184        O  0.13257633  0.19002215  0.45186936    -0.80800
O185        O  0.03707131  0.15929054  0.46165571    -0.83500
C186        C  0.06422217  0.21614086  0.57759820     0.97200
C187        C  0.09882392  0.25975164  0.49396542     1.04700
O188        O  0.07599262  0.19984509  0.47195250    -1.12500
O189        O  0.04845246  0.19406628  0.38477398    -0.74900
O190        O  0.04637625  0.23518837  0.41161758    -0.78400
O191        O  0.08866823  0.21258340  0.56714757    -0.79100
C192        C  0.04231084  0.21831127  0.38053660     0.96100
O193        O  0.01747771  0.19850292  0.47059578    -0.77100
O194        O  0.10464224  0.18186111  0.39410771    -0.82300
C195        C  0.10399552  0.14278581  0.50427502     0.98800
C196        C  0.12800432  0.18462647  0.41014151     1.04700
O197        O  0.10633595  0.16302336  0.52904581    -0.77900
C198        C  0.01668599  0.17337388  0.47043475     1.03000
Fe199      Fe  0.26003971  0.01920062  0.08196288     1.65800
Fe200      Fe  0.20681291  0.04172113  0.13936450     1.73200
Fe201      Fe  0.23457208  0.08070791  0.06073360     1.54400
O202        O  0.27399115  0.08633136  0.07515382    -0.81600
O203        O  0.17888289  0.06653774  0.10915234    -0.80000
O204        O  0.29182582  0.04568252  0.07574887    -0.84200
O205        O  0.25298698  0.02093848  0.01354201    -0.79000
O206        O  0.22457473  0.10237019  0.11962130    -0.80800
O207        O  0.19213334  0.01067334  0.10280559    -0.83500
C208        C  0.24884739  0.03961205  0.98560937     0.97200
C209        C  0.29396748  0.07085381  0.07483413     1.04700
O210        O  0.23422189  0.04728418  0.09398750    -1.12500
O211        O  0.22894914  0.01535111  0.17833622    -0.74900
O212        O  0.26970634  0.01344450  0.15000876    -0.78400
O213        O  0.24405144  0.06326545  0.99818353    -0.79100
C214        C  0.25297448  0.00760675  0.18047037     0.96100
O215        O  0.23034265  0.99028291  0.08467983    -0.77100
O216        O  0.22098812  0.07305039  0.17635073    -0.82300
C217        C  0.17603129  0.07656473  0.06996555     0.98800
C218        C  0.22208770  0.09674035  0.16180548     1.04700
O219        O  0.19515757  0.07784294  0.04239161    -0.77900
C220        C  0.20495440  0.99062863  0.08861456     1.03000
Fe221      Fe  0.05188196  0.74053978  0.98636463     1.65800
Fe222      Fe  0.07585350  0.79503791  0.93329806     1.73200
Fe223      Fe  0.11578465  0.76139030  0.00719150     1.54400
O224        O  0.09790785  0.75375590  0.07000380    -0.81600
O225        O  0.10840424  0.78410676  0.89589658    -0.80000
O226        O  0.05491352  0.74576519  0.05524826    -0.84200
O227        O  0.07655576  0.70717767  0.98998531    -0.79000
O228        O  0.11785795  0.80050398  0.02644382    -0.80800
O229        O  0.05222672  0.77376992  0.88946298    -0.83500
C230        C  0.10160089  0.70316128  0.99169053     0.97200
C231        C  0.07399894  0.74985467  0.08271240     1.04700
O232        O  0.08131419  0.76543712  0.97552902    -1.12500
O233        O  0.04306561  0.80812222  0.96812741    -0.74900
O234        O  0.02310429  0.77032179  0.98610412    -0.78400
O235        O  0.11838942  0.72177248  0.99271594    -0.79100
C236        C  0.02304732  0.79541080  0.98225351     0.96100
O237        O  0.04524641  0.73358486  0.91780654    -0.77100
O238        O  0.09847935  0.82170592  0.96924410    -0.82300
C239        C  0.13173666  0.77680569  0.90759985     0.98800
C240        C  0.11219404  0.82167818  0.00536060     1.04700
O241        O  0.13745545  0.76911294  0.94786023    -0.77900
C242        C  0.04332453  0.75046489  0.88587073     1.03000
Fe243      Fe  0.25921285  0.94701977  0.58031125     1.65800
Fe244      Fe  0.20449017  0.92519374  0.63230914     1.73200
Fe245      Fe  0.23762860  0.88407004  0.56293619     1.54400
O246        O  0.24796076  0.90095343  0.49967878    -0.81600
O247        O  0.21739788  0.89544446  0.67374448    -0.80000
O248        O  0.25221441  0.94439069  0.51219194    -0.84200
O249        O  0.29217699  0.92172113  0.57308345    -0.79000
O250        O  0.19867645  0.88348907  0.54049727    -0.80800
O251        O  0.22529817  0.95210235  0.67171825    -0.83500
C252        C  0.29591883  0.89678965  0.57467179     0.97200
C253        C  0.25065984  0.92477013  0.48556344     1.04700
O254        O  0.23400592  0.91855997  0.59168996    -1.12500
O255        O  0.19092622  0.95520004  0.59186135    -0.74900
O256        O  0.22944855  0.97623609  0.58287851    -0.78400
O257        O  0.27698830  0.88077111  0.58147279    -0.79100
C258        C  0.20401988  0.97568043  0.58148691     0.96100
O259        O  0.26742624  0.95213534  0.64891668    -0.77100
O260        O  0.17804757  0.89964013  0.60045111    -0.82300
C261        C  0.22109122  0.87127156  0.66384569     0.98800
C262        C  0.17772961  0.88682610  0.56348516     1.04700
O263        O  0.22699957  0.86389256  0.62349739    -0.77900
C264        C  0.24952396  0.95847892  0.67730594     1.03000
Fe265      Fe  0.97446237  0.73943347  0.48043624     1.65800
Fe266      Fe  0.95275687  0.79769052  0.43674316     1.73200
Fe267      Fe  0.91338598  0.76443010  0.50966139     1.54400
O268        O  0.90737196  0.72599777  0.49149953    -0.81600
O269        O  0.93080214  0.82414047  0.47485843    -0.80000
O270        O  0.94748087  0.70775492  0.48262685    -0.84200
O271        O  0.97432730  0.74133979  0.54997894    -0.79000
O272        O  0.89063680  0.77623030  0.45289723    -0.80800
O273        O  0.98624975  0.80749491  0.47298662    -0.83500
C274        C  0.95668450  0.74601885  0.57960978     0.97200
C275        C  0.92228771  0.70589897  0.48711965     1.04700
O276        O  0.94667885  0.76691282  0.47556578    -1.12500
O277        O  0.97643806  0.77747290  0.39135252    -0.74900
O278        O  0.97818054  0.73506950  0.41062195    -0.78400
O279        O  0.93294298  0.75307874  0.56948139    -0.79100
C280        C  0.98370651  0.75386521  0.38364385     0.96100
O281        O  0.00499963  0.76771124  0.48089859    -0.77100
O282        O  0.91929128  0.78930356  0.39909627    -0.82300
C283        C  0.91872135  0.82370559  0.51238473     0.98800
C284        C  0.89586027  0.78408119  0.41263558     1.04700
O285        O  0.91469140  0.80240681  0.53361061    -0.77900
C286        C  0.00637371  0.79292214  0.48184599     1.03000
Fe287      Fe  0.76534008  0.94193839  0.08568881     1.65800
Fe288      Fe  0.82125037  0.91885459  0.13823513     1.73200
Fe289      Fe  0.79099571  0.88099293  0.05874341     1.54400
O290        O  0.75130662  0.87553670  0.07118208    -0.81600
O291        O  0.84950935  0.89691719  0.10331501    -0.80000
O292        O  0.73342694  0.91548997  0.08284267    -0.84200
O293        O  0.76858032  0.94078059  0.01661964    -0.79000
O294        O  0.80005739  0.85769469  0.11626391    -0.80800
O295        O  0.83345608  0.95230978  0.10470717    -0.83500
C296        C  0.77458389  0.92365881  0.98707943     0.97200
C297        C  0.73130408  0.89065628  0.07629501     1.04700
O298        O  0.79223168  0.91382874  0.09427277    -1.12500
O299        O  0.79915128  0.94145961  0.18291561    -0.74900
O300        O  0.75856444  0.94749513  0.15428724    -0.78400
O301        O  0.78239447  0.90039683  0.99749540    -0.79100
C302        C  0.77536197  0.94967256  0.18632791     0.96100
O303        O  0.79459387  0.97126557  0.08530523    -0.77100
O304        O  0.81006572  0.88557941  0.17286307    -0.82300
C305        C  0.85061372  0.88515367  0.06547410     0.98800
C306        C  0.80537389  0.86249568  0.15794024     1.04700
O307        O  0.83028460  0.88244744  0.04060978    -0.77900
C308        C  0.81999267  0.97165906  0.08886131     1.03000
Fe309      Fe  0.97410191  0.22446246  0.98721987     1.65800
Fe310      Fe  0.95430699  0.16774426  0.93835757     1.73200
Fe311      Fe  0.91162086  0.19997238  0.00741063     1.54400
O312        O  0.92859336  0.20892550  0.07044790    -0.81600
O313        O  0.92321414  0.17834634  0.89706357    -0.80000
O314        O  0.97044055  0.22167441  0.05614814    -0.84200
O315        O  0.94782279  0.25650396  0.98714660    -0.79000
O316        O  0.91054795  0.16075485  0.02764415    -0.80800
O317        O  0.98007515  0.18818794  0.89715235    -0.83500
C318        C  0.92268178  0.25909497  0.99014187     0.97200
C319        C  0.95159836  0.21661850  0.08334504     1.04700
O320        O  0.94648477  0.19761465  0.97798213    -1.12500
O321        O  0.98541249  0.15633977  0.97896934    -0.74900
O322        O  0.00425577  0.19567567  0.99075897    -0.78400
O323        O  0.90711447  0.23949923  0.99270091    -0.79100
C324        C  0.00485938  0.17041354  0.99189036     0.96100
O325        O  0.98038490  0.23013886  0.91834430    -0.77100
O326        O  0.93031654  0.14080664  0.97048391    -0.82300
C327        C  0.89921793  0.18457984  0.90622705     0.98800
C328        C  0.91547657  0.14015627  0.00484726     1.04700
O329        O  0.89190322  0.19120599  0.94615863    -0.77900
C330        C  0.98618442  0.21210101  0.89023069     1.03000
Fe331      Fe  0.76582734  0.02169516  0.58552177     1.65800
Fe332      Fe  0.82321006  0.04449813  0.62954880     1.73200
Fe333      Fe  0.78796685  0.08321106  0.55794217     1.54400
O334        O  0.77631339  0.06400368  0.49765120    -0.81600
O335        O  0.81239003  0.07590951  0.66822372    -0.80000
O336        O  0.76832480  0.02179768  0.51618044    -0.84200
O337        O  0.73296456  0.04738709  0.58120385    -0.79000
O338        O  0.82592249  0.08235843  0.53306748    -0.80800
O339        O  0.80390738  0.01983120  0.67456465    -0.83500
C340        C  0.72996528  0.07242241  0.57964873     0.97200
C341        C  0.77097857  0.04008259  0.48698798     1.04700
O342        O  0.79209674  0.04993496  0.59072992    -1.12500
O343        O  0.83477952  0.01272391  0.59185979    -0.74900
O344        O  0.79554573  0.99226190  0.58676512    -0.78400
O345        O  0.74940106  0.08818652  0.57805339    -0.79100
C346        C  0.82096640  0.99223947  0.58422304     0.96100
O347        O  0.76120841  0.01914051  0.65528590    -0.77100
O348        O  0.84859926  0.06853630  0.59290878    -0.82300
C349        C  0.80651529  0.09940038  0.65632246     0.98800
C350        C  0.84745253  0.08042586  0.55504761     1.04700
O351        O  0.79959550  0.10537262  0.61558655    -0.77900
C352        C  0.77985297  0.01441084  0.68353103     1.03000
C353        C  0.87942955  0.18239756  0.86841824    -0.11900
C354        C  0.85143645  0.18179827  0.87474343     0.03500
C355        C  0.83470567  0.17410804  0.83878372    -0.12500
C356        C  0.84527745  0.16651014  0.79671913     0.18400
C357        C  0.87283392  0.16912198  0.78943984    -0.09500
C358        C  0.88938713  0.17740898  0.82464540    -0.02500
H359        H  0.81346669  0.17247880  0.84449605     0.04900
C360        C  0.82845165  0.15251094  0.76299906     0.20400
H361        H  0.91058851  0.17825326  0.81812731     0.10100
C362        C  0.82610480  0.16240563  0.71851461    -0.15900
C363        C  0.81718632  0.14625576  0.68290405     0.03100
C364        C  0.80937572  0.11994890  0.69209156    -0.11200
C365        C  0.80869166  0.11143669  0.73765664    -0.01200
C366        C  0.81858858  0.12711529  0.77270741    -0.06400
H367        H  0.83350770  0.18199451  0.71080678     0.06100
H368        H  0.80240545  0.09151812  0.74584646     0.09500
Br369      Br  0.88978692  0.15849517  0.73400911    -0.06100
Br370      Br  0.83450690  0.18919013  0.93165182    -0.03000
Br371      Br  0.81984168  0.16030238  0.62253142    -0.00200
Br372      Br  0.82167252  0.11112385  0.83182320    -0.04500
C373        C  0.83433949  0.99594906  0.07508528    -0.11900
C374        C  0.86047498  0.99513935  0.05728610     0.03500
C375        C  0.87373611  0.01873301  0.04735906    -0.12500
C376        C  0.86138709  0.04334430  0.05417030     0.18400
C377        C  0.83484995  0.04415962  0.06946298    -0.09500
C378        C  0.82167837  0.02064169  0.08012931    -0.02500
H379        H  0.89378643  0.01788984  0.03393662     0.04900
C380        C  0.87605043  0.06779844  0.04262959     0.20400
H381        H  0.80146414  0.02171957  0.09275377     0.10100
C382        C  0.88238321  0.07265980  0.99719141    -0.15900
C383        C  0.89560928  0.09573875  0.98432947     0.03100
C384        C  0.90289431  0.11467187  0.01754211    -0.11200
C385        C  0.89689204  0.10948248  0.06325288    -0.01200
C386        C  0.88389660  0.08614837  0.07597549    -0.06400
H387        H  0.87650361  0.05859015  0.97137907     0.06100
H388        H  0.90251252  0.12351480  0.08925497     0.09500
Br389      Br  0.81534376  0.07678911  0.07437528    -0.06100
Br390      Br  0.87855101  0.96265065  0.04263106    -0.03000
Br391      Br  0.90116024  0.10060308  0.92029575    -0.00200
Br392      Br  0.87812144  0.07971653  0.13936102    -0.04500
C393        C  0.77453267  0.00170376  0.72818049    -0.11900
C394        C  0.75343171  0.98375035  0.73546104     0.03500
C395        C  0.75205595  0.96961661  0.77647590    -0.12500
C396        C  0.77116623  0.97320382  0.81088313     0.18400
C397        C  0.79140162  0.99197534  0.80454298    -0.09500
C398        C  0.79298090  0.00587662  0.76363682    -0.02500
H399        H  0.73623519  0.95540253  0.78129546     0.04900
C400        C  0.76985427  0.95744258  0.85334786     0.20400
H401        H  0.80906730  0.01986567  0.75938074     0.10100
C402        C  0.79023238  0.93911562  0.86359924    -0.15900
C403        C  0.79146184  0.92643012  0.90601575     0.03100
C404        C  0.77195217  0.93205715  0.93898065    -0.11200
C405        C  0.75076814  0.94922110  0.92743650    -0.01200
C406        C  0.74958561  0.96184003  0.88522041    -0.06400
H407        H  0.80587202  0.93552043  0.83913852     0.06100
H408        H  0.73551227  0.95369525  0.95218437     0.09500
Br409      Br  0.81719512  0.99967693  0.85103452    -0.06100
Br410      Br  0.72680985  0.97627089  0.69031693    -0.03000
Br411      Br  0.82158764  0.90390129  0.91835223    -0.00200
Br412      Br  0.72110250  0.98660330  0.87432490    -0.04500
C413        C  0.76747142  0.03243536  0.43883313    -0.11900
C414        C  0.78796253  0.03549703  0.40675524     0.03500
C415        C  0.78558045  0.02379046  0.36375016    -0.12500
C416        C  0.76306781  0.00876552  0.35213840     0.18400
C417        C  0.74223967  0.00645838  0.38365654    -0.09500
C418        C  0.74456180  0.01820019  0.42649600    -0.02500
H419        H  0.80191943  0.02534133  0.34004659     0.04900
C420        C  0.76299586  0.99340334  0.30919791     0.20400
H421        H  0.72873481  0.01548574  0.45090170     0.10100
C422        C  0.76795119  0.96604647  0.31107444    -0.15900
C423        C  0.77058901  0.95116348  0.27128283     0.03100
C424        C  0.76789063  0.96352035  0.22857877    -0.11200
C425        C  0.76172931  0.99066090  0.22667894    -0.01200
C426        C  0.75949727  0.00564727  0.26654266    -0.06400
H427        H  0.77055183  0.95637471  0.34367883     0.06100
H428        H  0.75994474  0.00049471  0.19406532     0.09500
Br429      Br  0.71063399  0.98675346  0.37008713    -0.06100
Br430      Br  0.82083113  0.05265051  0.42189876    -0.03000
Br431      Br  0.77807281  0.91403758  0.27680921    -0.00200
Br432      Br  0.75233199  0.04283240  0.26125653    -0.04500
C433        C  0.87383641  0.78964406  0.38076109    -0.11900
C434        C  0.86569094  0.81598223  0.37328291     0.03500
C435        C  0.84808938  0.82203018  0.33791037    -0.12500
C436        C  0.83818712  0.80218070  0.30933122     0.18400
C437        C  0.84536343  0.77559703  0.31802735    -0.09500
C438        C  0.86311123  0.76947930  0.35370073    -0.02500
H439        H  0.84312918  0.84258114  0.33127418     0.04900
C440        C  0.82389271  0.81066748  0.26745263     0.20400
H441        H  0.86932985  0.74915441  0.35916558     0.10100
C442        C  0.83663444  0.80721487  0.22557369    -0.15900
C443        C  0.82879419  0.82196611  0.18742467     0.03100
C444        C  0.80793089  0.84062681  0.19094725    -0.11200
C445        C  0.79353442  0.84215412  0.23154451    -0.01200
C446        C  0.80121666  0.82721278  0.26954610    -0.06400
H447        H  0.85428008  0.79482801  0.22353677     0.06100
H448        H  0.77733996  0.85628935  0.23457905     0.09500
Br449      Br  0.83182599  0.74727492  0.28159382    -0.06100
Br450      Br  0.87924732  0.84469759  0.40892889    -0.03000
Br451      Br  0.85000352  0.81888339  0.13377652    -0.00200
Br452      Br  0.78144269  0.83154698  0.32457793    -0.04500
C453        C  0.90701155  0.84849721  0.53008627    -0.11900
C454        C  0.91806881  0.87352406  0.52067697     0.03500
C455        C  0.90389907  0.89648884  0.53168810    -0.12500
C456        C  0.87901518  0.89509022  0.55296737     0.18400
C457        C  0.86858331  0.87020428  0.56453901    -0.09500
C458        C  0.88255802  0.84720810  0.55307954    -0.02500
H459        H  0.91223468  0.91559427  0.52322823     0.04900
C460        C  0.86400898  0.91978893  0.56161883     0.20400
H461        H  0.87374380  0.82821041  0.56078414     0.10100
C462        C  0.83982034  0.92438763  0.53860454    -0.15900
C463        C  0.82543980  0.94788639  0.54499053     0.03100
C464        C  0.83536362  0.96729017  0.57488479    -0.11200
C465        C  0.85978102  0.96272384  0.59732185    -0.01200
C466        C  0.87403918  0.93925373  0.59102449    -0.06400
H467        H  0.83229094  0.90974112  0.51508694     0.06100
H468        H  0.86764735  0.97732058  0.62061122     0.09500
Br469      Br  0.83542724  0.86661219  0.59610212    -0.06100
Br470      Br  0.95274108  0.87773779  0.49445015    -0.03000
Br471      Br  0.79351056  0.95301550  0.50968053    -0.00200
Br472      Br  0.90663441  0.93438993  0.62458352    -0.04500
C473        C  0.03220924  0.80617397  0.49277521    -0.11900
C474        C  0.05648082  0.79220442  0.50062142     0.03500
C475        C  0.07986981  0.80613594  0.51065249    -0.12500
C476        C  0.07988728  0.83379573  0.51275392     0.18400
C477        C  0.05616749  0.84780076  0.50405732    -0.09500
C478        C  0.03270393  0.83408549  0.49441088    -0.02500
H479        H  0.09821167  0.79529992  0.51712996     0.04900
C480        C  0.10466470  0.84772495  0.52538526     0.20400
H481        H  0.01473752  0.84553407  0.48811932     0.10100
C482        C  0.12340383  0.85381604  0.49194227    -0.15900
C483        C  0.14711098  0.86695516  0.50301545     0.03100
C484        C  0.15233613  0.87431245  0.54858692    -0.11200
C485        C  0.13318011  0.86829654  0.58177975    -0.01200
C486        C  0.10968605  0.85501279  0.57057548    -0.06400
H487        H  0.11951669  0.84834978  0.45700662     0.06100
H488        H  0.13673603  0.87332768  0.61699982     0.09500
Br489      Br  0.05499995  0.88574807  0.50484952    -0.06100
Br490      Br  0.05996081  0.75435114  0.49798414    -0.03000
Br491      Br  0.17077362  0.87484064  0.45383777    -0.00200
Br492      Br  0.08524782  0.84652296  0.61824919    -0.04500
C493        C  0.99868744  0.81017143  0.99515922    -0.11900
C494        C  0.99099155  0.83411778  0.97362751     0.03500
C495        C  0.96746163  0.84691808  0.98649929    -0.12500
C496        C  0.95132381  0.83639033  0.02057126     0.18400
C497        C  0.95897970  0.81273937  0.04239128    -0.09500
C498        C  0.98241304  0.79979501  0.02951310    -0.02500
H499        H  0.96140027  0.86493930  0.96919702     0.04900
C500        C  0.92583067  0.84959355  0.03109068     0.20400
H501        H  0.98801616  0.78160048  0.04670773     0.10100
C502        C  0.90208842  0.83798915  0.01626591    -0.15900
C503        C  0.87743237  0.84958314  0.02586028     0.03100
C504        C  0.87629105  0.87344975  0.05090597    -0.11200
C505        C  0.90026448  0.88513400  0.06529073    -0.01200
C506        C  0.92490040  0.87348807  0.05531314    -0.06400
H507        H  0.90277119  0.81955527  0.99759685     0.06100
H508        H  0.89985460  0.90329509  0.08471018     0.09500
Br509      Br  0.93825660  0.79767545  0.09041515    -0.06100
Br510      Br  0.01033572  0.84954900  0.92420219    -0.03000
Br511      Br  0.84638641  0.83041046  0.00654678    -0.00200
Br512      Br  0.95674049  0.89028460  0.07677622    -0.04500
C513        C  0.15285558  0.77908793  0.87262133    -0.11900
C514        C  0.17844826  0.78918067  0.88279039     0.03500
C515        C  0.19470255  0.79844183  0.84761746    -0.12500
C516        C  0.18587515  0.79801111  0.80232197     0.18400
C517        C  0.16167531  0.78546775  0.79182341    -0.09500
C518        C  0.14548843  0.77605254  0.82675118    -0.02500
H519        H  0.21318275  0.80833243  0.85602511     0.04900
C520        C  0.19797709  0.81640497  0.76916451     0.20400
H521        H  0.12608112  0.76815182  0.81808540     0.10100
C522        C  0.21441538  0.80729857  0.73396634    -0.15900
C523        C  0.22341107  0.82471930  0.69992612     0.03100
C524        C  0.21567250  0.85171593  0.70079101    -0.11200
C525        C  0.20004268  0.86056901  0.73741609    -0.01200
C526        C  0.19120086  0.84336458  0.77093455    -0.06400
H527        H  0.21985387  0.78655082  0.73255054     0.06100
H528        H  0.19352896  0.88099567  0.73938099     0.09500
Br529      Br  0.14820298  0.78415128  0.73076802    -0.06100
Br530      Br  0.19075491  0.79486982  0.94380639    -0.03000
Br531      Br  0.24649757  0.81054287  0.65427645    -0.00200
Br532      Br  0.16816774  0.85754168  0.81690197    -0.04500
C533        C  0.06719973  0.75099501  0.13131590    -0.11900
C534        C  0.04997084  0.77098927  0.14706671     0.03500
C535        C  0.03967954  0.76964555  0.19094401    -0.12500
C536        C  0.04638376  0.74862261  0.22014061     0.18400
C537        C  0.06457970  0.72917624  0.20518622    -0.09500
C538        C  0.07487867  0.73047112  0.16094678    -0.02500
H539        H  0.02590993  0.78485382  0.20208161     0.04900
C540        C  0.03324583  0.74734154  0.26516499     0.20400
H541        H  0.08811985  0.71497962  0.14919013     0.10100
C542        C  0.01433098  0.72753899  0.27402941    -0.15900
C543        C  0.99847968  0.72840093  0.31324801     0.03100
C544        C  0.00116631  0.74962874  0.34381938    -0.11200
C545        C  0.02096726  0.76864337  0.33575091    -0.01200
C546        C  0.03695766  0.76757980  0.29719937    -0.06400
H547        H  0.01115747  0.71195391  0.24947832     0.06100
H548        H  0.02388215  0.78470842  0.35951784     0.09500
Br549      Br  0.07586608  0.70069759  0.24402209    -0.06100
Br550      Br  0.03984734  0.80054880  0.10956376    -0.03000
Br551      Br  0.97218161  0.70148088  0.32142553    -0.00200
Br552      Br  0.06353896  0.79439605  0.28973632    -0.04500
C553        C  0.03007352  0.74377134  0.84244593    -0.11900
C554        C  0.00438654  0.73251891  0.84058497     0.03500
C555        C  0.99087798  0.73070179  0.79882912    -0.12500
C556        C  0.00254417  0.74012209  0.75879925     0.18400
C557        C  0.02826385  0.75100944  0.76058748    -0.09500
C558        C  0.04177047  0.75271217  0.80204691    -0.02500
H559        H  0.97094520  0.72258302  0.79774129     0.04900
C560        C  0.98756914  0.73947559  0.71542522     0.20400
H561        H  0.06126756  0.76183609  0.80295490     0.10100
C562        C  0.97067924  0.76071986  0.70391540    -0.15900
C563        C  0.95934281  0.76271989  0.66039971     0.03100
C564        C  0.96476847  0.74306018  0.62774358    -0.11200
C565        C  0.98091503  0.72134086  0.64006560    -0.01200
C566        C  0.99225205  0.71944237  0.68343242    -0.06400
H567        H  0.96736506  0.77645031  0.72817106     0.06100
H568        H  0.98536223  0.70612441  0.61536537     0.09500
Br569      Br  0.04517570  0.76504336  0.70750426    -0.06100
Br570      Br  0.98575275  0.72200656  0.89431197    -0.03000
Br571      Br  0.93935576  0.79417391  0.64598020    -0.00200
Br572      Br  0.01517915  0.68991255  0.69687347    -0.04500
C573        C  0.12325029  0.84707057  0.02190473    -0.11900
C574        C  0.11169844  0.87186378  0.01038239     0.03500
C575        C  0.12491563  0.89524834  0.02162236    -0.12500
C576        C  0.14932264  0.89452505  0.04479693     0.18400
C577        C  0.16007089  0.87009446  0.05884360    -0.09500
C578        C  0.14714781  0.84663302  0.04717945    -0.02500
H579        H  0.11618487  0.91412974  0.01203930     0.04900
C580        C  0.16312843  0.91950712  0.05464825     0.20400
H581        H  0.15626826  0.82796834  0.05690766     0.10100
C582        C  0.15453005  0.93492507  0.09112810    -0.15900
C583        C  0.16764008  0.95831612  0.10247068     0.03100
C584        C  0.18989412  0.96656714  0.07689604    -0.11200
C585        C  0.19824463  0.95115368  0.03996935    -0.01200
C586        C  0.18489365  0.92789017  0.02850376    -0.06400
H587        H  0.13781197  0.92845030  0.11136284     0.06100
H588        H  0.21506820  0.95734062  0.01971721     0.09500
Br589      Br  0.19231116  0.86798904  0.09408786    -0.06100
Br590      Br  0.07752505  0.87553518  0.98116556    -0.03000
Br591      Br  0.15525996  0.97681259  0.15527524    -0.00200
Br592      Br  0.19672056  0.90836498  0.97656450    -0.04500
C593        C  0.02959213  0.15690780  0.00660190    -0.11900
C594        C  0.02925184  0.13254753  0.03030318     0.03500
C595        C  0.05322978  0.11963734  0.04066466    -0.12500
C596        C  0.07763513  0.13050528  0.02767615     0.18400
C597        C  0.07809577  0.15487895  0.00463635    -0.09500
C598        C  0.05418865  0.16797797  0.99456350    -0.02500
H599        H  0.05287498  0.10097742  0.05886158     0.04900
C600        C  0.10244024  0.11615247  0.03867108     0.20400
H601        H  0.05481503  0.18655723  0.97616858     0.10100
C602        C  0.11589755  0.10249957  0.00428734    -0.15900
C603        C  0.13967960  0.08889859  0.01362704     0.03100
C604        C  0.15019870  0.08888716  0.05816249    -0.11200
C605        C  0.13628369  0.10218757  0.09259728    -0.01200
C606        C  0.11264872  0.11580870  0.08314685    -0.06400
H607        H  0.10781855  0.10243035  0.97009492     0.06100
H608        H  0.14419032  0.10260593  0.12690044     0.09500
Br609      Br  0.11090775  0.17093813  0.98639741    -0.06100
Br610      Br  0.99696135  0.11633464  0.05106872    -0.03000
Br611      Br  0.15604011  0.06974481  0.96489231    -0.00200
Br612      Br  0.09552612  0.13448631  0.13162289    -0.04500
C613        C  0.25570804  0.97498829  0.71727632    -0.11900
C614        C  0.27292206  0.96639561  0.75228120     0.03500
C615        C  0.27351467  0.98011291  0.79367611    -0.12500
C616        C  0.25715331  0.00242465  0.80067090     0.18400
C617        C  0.24121277  0.01188820  0.76465078    -0.09500
C618        C  0.24054253  0.99815740  0.72351705    -0.02500
H619        H  0.28568474  0.97253167  0.82134769     0.04900
C620        C  0.25408166  0.01317371  0.84717147     0.20400
H621        H  0.22711579  0.00491934  0.69688487     0.10100
C622        C  0.26652258  0.03690019  0.85985320    -0.15900
C623        C  0.26418486  0.04672166  0.90430776     0.03100
C624        C  0.24931234  0.03257548  0.93678910    -0.11200
C625        C  0.23638764  0.00924774  0.92342626    -0.01200
C626        C  0.23844607  0.99968882  0.87915416    -0.06400
H627        H  0.27842541  0.04753369  0.83535191     0.06100
H628        H  0.22473740  0.99821271  0.94780004     0.09500
Br629      Br  0.21816387  0.04200821  0.77151699    -0.06100
Br630      Br  0.29350409  0.93449502  0.74694400    -0.03000
Br631      Br  0.28327592  0.07824947  0.91975298    -0.00200
Br632      Br  0.21924959  0.96818337  0.86372564    -0.04500
C633        C  0.26044480  0.99016353  0.21892324    -0.11900
C634        C  0.24761351  0.96557427  0.22442400     0.03500
C635        C  0.24941539  0.95192444  0.26564416    -0.12500
C636        C  0.26412982  0.96223616  0.30184877     0.18400
C637        C  0.27914429  0.98543331  0.29504957    -0.09500
C638        C  0.27711395  0.99935826  0.25378634    -0.02500
H639        H  0.23807644  0.93394943  0.27028536     0.04900
C640        C  0.25985761  0.95116599  0.34784894     0.20400
H641        H  0.28729717  0.01806110  0.24996767     0.10100
C642        C  0.27276081  0.92776654  0.36195242    -0.15900
C643        C  0.26898095  0.91764220  0.40600637     0.03100
C644        C  0.25196386  0.93103529  0.43641763    -0.11200
C645        C  0.23822464  0.95370752  0.42113984    -0.01200
C646        C  0.24191035  0.96367472  0.37744957    -0.06400
H647        H  0.28624291  0.91773995  0.33905768     0.06100
H648        H  0.22491044  0.96415247  0.44381607     0.09500
Br649      Br  0.30131580  0.99942740  0.34231838    -0.06100
Br650      Br  0.22662436  0.95000885  0.17717231    -0.03000
Br651      Br  0.28900393  0.88685761  0.42385017    -0.00200
Br652      Br  0.22202735  0.99466144  0.35975973    -0.04500
C653        C  0.99105167  0.16006359  0.47964546    -0.11900
C654        C  0.97080805  0.17181374  0.50636161     0.03500
C655        C  0.94740364  0.15791374  0.51506435    -0.12500
C656        C  0.94356527  0.13251936  0.49756746     0.18400
C657        C  0.96309398  0.12113438  0.46968687    -0.09500
C658        C  0.98668519  0.13478530  0.46125525    -0.02500
H659        H  0.93227820  0.16674477  0.53642292     0.04900
C660        C  0.91931068  0.11803453  0.51002356     0.20400
H661        H  0.00159563  0.12562268  0.43990200     0.10100
C662        C  0.89474237  0.12628396  0.49214316    -0.15900
C663        C  0.87107714  0.11415309  0.50549738     0.03100
C664        C  0.87191242  0.09287628  0.53702642    -0.11200
C665        C  0.89677550  0.08471591  0.55463980    -0.01200
C666        C  0.92026170  0.09729357  0.54184381    -0.06400
H667        H  0.89394853  0.14273761  0.46848079     0.06100
H668        H  0.89797700  0.06886036  0.57940319     0.09500
Br669      Br  0.95810235  0.08722937  0.44188810    -0.06100
Br670      Br  0.97387255  0.20598605  0.53428398    -0.03000
Br671      Br  0.83864083  0.12953486  0.48200380    -0.00200
Br672      Br  0.95295862  0.08672446  0.57102669    -0.04500
C673        C  0.00129971  0.21789162  0.84839184    -0.11900
C674        C  0.99547881  0.23954156  0.81961778     0.03500
C675        C  0.00790924  0.24136120  0.77712487    -0.12500
C676        C  0.02617016  0.22190147  0.76290754     0.18400
C677        C  0.03289332  0.20107436  0.79259282    -0.09500
C678        C  0.02055112  0.19924811  0.83477290    -0.02500
H679        H  0.00249587  0.25737497  0.75430248     0.04900
C680        C  0.03590603  0.22179209  0.71556212     0.20400
H681        H  0.02540064  0.18255973  0.85653663     0.10100
C682        C  0.06274606  0.22725244  0.70630313    -0.15900
C683        C  0.07278919  0.22531789  0.66201125     0.03100
C684        C  0.05573224  0.21769664  0.62594906    -0.11200
C685        C  0.02885571  0.21226018  0.63585520    -0.01200
C686        C  0.01893938  0.21426782  0.67984020    -0.06400
H687        H  0.07596619  0.23289080  0.73376991     0.06100
H688        H  0.01534430  0.20607057  0.60925067     0.09500
Br689      Br  0.05712641  0.17335127  0.77553626    -0.06100
Br690      Br  0.96896615  0.26554702  0.83451363    -0.03000
Br691      Br  0.10954199  0.23429202  0.65342791    -0.00200
Br692      Br  0.98223067  0.20539160  0.68962667    -0.04500
C693        C  0.95736555  0.22079920  0.13187765    -0.11900
C694        C  0.95309411  0.20116404  0.16504787     0.03500
C695        C  0.96408764  0.20424281  0.20859128    -0.12500
C696        C  0.97893729  0.22685651  0.21951466     0.18400
C697        C  0.98134308  0.24727396  0.18748150    -0.09500
C698        C  0.97083257  0.24403121  0.14402394    -0.02500
H699        H  0.96230912  0.18837072  0.23314705     0.04900
C700        C  0.99517363  0.22724083  0.26132772     0.20400
H701        H  0.97419199  0.25930442  0.11898712     0.10100
C702        C  0.02273213  0.22298351  0.25762849    -0.15900
C703        C  0.03892317  0.22182407  0.29625216     0.03100
C704        C  0.02767712  0.22579217  0.33929995    -0.11200
C705        C  0.00024165  0.23093721  0.34292433    -0.01200
C706        C  0.98387802  0.23129215  0.30429455    -0.06400
H707        H  0.03151764  0.21971563  0.22458962     0.06100
H708        H  0.99126669  0.23297062  0.37610168     0.09500
Br709      Br  0.00001386  0.27936551  0.20105096    -0.06100
Br710      Br  0.93525684  0.16867587  0.15122138    -0.03000
Br711      Br  0.07599718  0.21356026  0.28880119    -0.00200
Br712      Br  0.94623849  0.23613369  0.31180681    -0.04500
C713        C  0.21710349  0.11812855  0.19488626    -0.11900
C714        C  0.23090502  0.11929731  0.23657404     0.03500
C715        C  0.22097290  0.13494632  0.27196834    -0.12500
C716        C  0.19662296  0.14868040  0.26729453     0.18400
C717        C  0.18402264  0.14915936  0.22418694    -0.09500
C718        C  0.19453714  0.13424514  0.18841114    -0.02500
H719        H  0.23136542  0.13496464  0.30430283     0.04900
C720        C  0.18314615  0.15953315  0.30840833     0.20400
H721        H  0.18362941  0.13339960  0.15658546     0.10100
C722        C  0.17464148  0.18610707  0.30940333    -0.15900
C723        C  0.15769602  0.19530641  0.34375410     0.03100
C724        C  0.15032959  0.17837341  0.37947170    -0.11200
C725        C  0.16057023  0.15253504  0.38053775    -0.01200
C726        C  0.17636664  0.14286246  0.34519205    -0.06400
H727        H  0.17987515  0.19931718  0.28190059     0.06100
H728        H  0.15450591  0.13912263  0.40724120     0.09500
Br729      Br  0.15061943  0.16691027  0.21326379    -0.06100
Br730      Br  0.26266479  0.09883652  0.24721158    -0.03000
Br731      Br  0.14356732  0.23042982  0.33882163    -0.00200
Br732      Br  0.18496575  0.10577343  0.34650258    -0.04500
C733        C  0.11665563  0.11761819  0.51850576    -0.11900
C734        C  0.12028263  0.11021151  0.56442526     0.03500
C735        C  0.13474092  0.08720567  0.57510829    -0.12500
C736        C  0.14603389  0.07165720  0.54076687     0.18400
C737        C  0.14237802  0.07901506  0.49511597    -0.09500
C738        C  0.12758355  0.10157756  0.48438203    -0.02500
H739        H  0.13719160  0.08138734  0.61031871     0.04900
C740        C  0.16083290  0.04729884  0.55260468     0.20400
H741        H  0.12546874  0.10710031  0.44898614     0.10100
C742        C  0.15039654  0.02291314  0.53897697    -0.15900
C743        C  0.16438429  0.99940912  0.54696205     0.03100
C744        C  0.18919770  0.00006608  0.56984131    -0.11200
C745        C  0.19957779  0.02455333  0.58359473    -0.01200
C746        C  0.18560267  0.04807520  0.57520060    -0.06400
H747        H  0.13144880  0.02225721  0.52115530     0.06100
H748        H  0.21851063  0.02539909  0.60142380     0.09500
Br749      Br  0.15843681  0.05974096  0.44618759    -0.06100
Br750      Br  0.10529840  0.12994305  0.61378327    -0.03000
Br751      Br  0.14923613  0.96747971  0.52299813    -0.00200
Br752      Br  0.20153374  0.08073347  0.59388160    -0.04500
C753        C  0.11233152  0.67595761  0.99614844    -0.11900
C754        C  0.10520500  0.65978203  0.03327472     0.03500
C755        C  0.12121551  0.63798499  0.04526471    -0.12500
C756        C  0.14426100  0.63192212  0.02062785     0.18400
C757        C  0.14999872  0.64659950  0.98119942    -0.09500
C758        C  0.13420566  0.66852656  0.96945040    -0.02500
H759        H  0.11678088  0.62693807  0.07583294     0.04900
C760        C  0.16461545  0.61395112  0.04069302     0.20400
H761        H  0.14003068  0.68081436  0.94103523     0.10100
C762        C  0.16603573  0.58732015  0.02774456    -0.15900
C763        C  0.18770482  0.57133431  0.04131895     0.03100
C764        C  0.20857561  0.58213533  0.06780477    -0.11200
C765        C  0.20598910  0.60834179  0.08298196    -0.01200
C766        C  0.18427383  0.62411406  0.06995908    -0.06400
H767        H  0.15092219  0.57931171  0.00535265     0.06100
H768        H  0.22174547  0.61711376  0.10297864     0.09500
Br769      Br  0.18082499  0.63903859  0.94515255    -0.06100
Br770      Br  0.07636663  0.66884075  0.07292830    -0.03000
Br771      Br  0.18895124  0.53597801  0.01845789    -0.00200
Br772      Br  0.18338607  0.66020247  0.09003131    -0.04500
C773        C  0.32253920  0.88508174  0.56461197    -0.11900
C774        C  0.33890667  0.89492686  0.52935880     0.03500
C775        C  0.35906011  0.87880364  0.51100510    -0.12500
C776        C  0.36366863  0.85320401  0.52788120     0.18400
C777        C  0.34922807  0.84450196  0.56583201    -0.09500
C778        C  0.32885166  0.86026159  0.58362382    -0.02500
H779        H  0.37032644  0.88578681  0.48213893     0.04900
C780        C  0.38138166  0.83447233  0.50354836     0.20400
H781        H  0.31682319  0.85235889  0.61085909     0.10100
C782        C  0.40743285  0.83008018  0.51938659    -0.15900
C783        C  0.42212199  0.80790475  0.50519610     0.03100
C784        C  0.41063420  0.78953809  0.47483240    -0.11200
C785        C  0.38540880  0.79534376  0.45613974    -0.01200
C786        C  0.37089654  0.81762523  0.46999790    -0.06400
H787        H  0.41562487  0.84286799  0.54534447     0.06100
H788        H  0.37619716  0.78154403  0.43283036     0.09500
Br789      Br  0.35521519  0.81018082  0.59215699    -0.06100
Br790      Br  0.33326412  0.92894305  0.50157561    -0.03000
Br791      Br  0.45601810  0.80191457  0.53363538    -0.00200
Br792      Br  0.33567458  0.82279308  0.44570636    -0.04500
C793        C  0.31947302  0.62013266  0.17445641    -0.11900
C794        C  0.29872590  0.63578969  0.19239942     0.05100
C795        C  0.30403106  0.65311930  0.22858482    -0.12500
C796        C  0.32990362  0.65521039  0.24667059     0.18400
C797        C  0.35068758  0.64011993  0.22762186    -0.09500
C798        C  0.34536095  0.62291494  0.19193863    -0.02500
H799        H  0.28787931  0.66440403  0.24340996     0.04900
C800        C  0.33525895  0.67106388  0.28781612     0.20400
H801        H  0.36148533  0.61090259  0.17866122     0.10100
C802        C  0.33036968  0.65957067  0.33035217    -0.15900
C803        C  0.34403149  0.66829122  0.36909333     0.03100
C804        C  0.36301841  0.68859659  0.36517623    -0.11200
C805        C  0.36514063  0.70230184  0.32383738    -0.01200
C806        C  0.35115316  0.69385670  0.28535470    -0.06400
H807        H  0.31807920  0.64206722  0.33261811     0.06100
H808        H  0.37962570  0.71798654  0.32039377     0.09500
Br809      Br  0.38646351  0.64069331  0.25136614    -0.06100
Br810      Br  0.26269602  0.63247197  0.17151324    -0.03000
Br811      Br  0.33956455  0.64883865  0.42452062    -0.00200
Br812      Br  0.35721627  0.71156423  0.22872196    -0.04500
C813        C  0.20859925  0.37388894  0.57846730    -0.11900
C814        C  0.18470119  0.38588533  0.56306025     0.03500
C815        C  0.16225616  0.37024643  0.55449728    -0.12500
C816        C  0.16308788  0.34289725  0.56227847     0.18400
C817        C  0.18601589  0.33141218  0.58195403    -0.09500
C818        C  0.20860990  0.34683802  0.58946997    -0.02500
H819        H  0.14465348  0.37917010  0.53927403     0.04900
C820        C  0.14247831  0.32584688  0.54201607     0.20400
H821        H  0.22670299  0.33739222  0.60184670     0.10100
C822        C  0.14655125  0.31683200  0.49764331    -0.15900
C823        C  0.13095072  0.29659268  0.47962966     0.03100
C824        C  0.11047053  0.28548741  0.50572695    -0.11200
C825        C  0.10503573  0.29597211  0.54886082    -0.01200
C826        C  0.12110708  0.31584500  0.56735478    -0.06400
H827        H  0.16299417  0.32448370  0.47796134     0.06100
H828        H  0.08966859  0.28720542  0.56967482     0.09500
Br829      Br  0.18807201  0.29423933  0.59519670    -0.06100
Br830      Br  0.18239020  0.42276676  0.54813035    -0.03000
Br831      Br  0.13921851  0.28388385  0.42023647    -0.00200
Br832      Br  0.11483321  0.32698415  0.62850908    -0.04500
C833        C  0.32463914  0.50245523  0.56467760    -0.11900
C834        C  0.31627159  0.51746265  0.52638777     0.03500
C835        C  0.32861726  0.54163754  0.51678974    -0.12500
C836        C  0.34908554  0.55124894  0.54470237     0.18400
C837        C  0.35673866  0.53692069  0.58352014    -0.09500
C838        C  0.34460598  0.51281735  0.59319577    -0.02500
H839        H  0.32275635  0.55265976  0.48670665     0.04900
C840        C  0.36371626  0.57521389  0.53129652     0.20400
H841        H  0.35108962  0.50200078  0.62312319     0.10100
C842        C  0.35653203  0.59973813  0.54955779    -0.15900
C843        C  0.37063305  0.62265657  0.53835050     0.03100
C844        C  0.39253689  0.62113690  0.50821366    -0.11200
C845        C  0.39961489  0.59631148  0.49028922    -0.01200
C846        C  0.38547932  0.57352556  0.50168179    -0.06400
H847        H  0.33975903  0.60104886  0.57246547     0.06100
H848        H  0.41618790  0.59457627  0.46706250     0.09500
Br849      Br  0.38445630  0.54911399  0.62329037    -0.06100
Br850      Br  0.28962359  0.50562827  0.48399504    -0.03000
Br851      Br  0.35755145  0.65528155  0.56334486    -0.00200
Br852      Br  0.39661889  0.54034984  0.47635412    -0.04500
C853        C  0.27372794  0.42934819  0.43144647    -0.11900
C854        C  0.25077439  0.44205351  0.41341482     0.03500
C855        C  0.25204675  0.45534487  0.37182800    -0.12500
C856        C  0.27581551  0.45618354  0.34733060     0.18400
C857        C  0.29838523  0.44251333  0.36393618    -0.09500
C858        C  0.29720333  0.42916351  0.40561013    -0.02500
H859        H  0.23446747  0.46541027  0.35875592     0.04900
C860        C  0.27669594  0.47178622  0.30488663     0.20400
H861        H  0.31506567  0.41966071  0.41877726     0.10100
C862        C  0.28848550  0.49688849  0.30519811    -0.15900
C863        C  0.29017701  0.51188803  0.26527967     0.03100
C864        C  0.27999219  0.50170462  0.22419674    -0.11200
C865        C  0.26712610  0.47708690  0.22451352    -0.01200
C866        C  0.26547789  0.46212862  0.26440323    -0.06400
H867        H  0.29653602  0.50473667  0.33656120     0.06100
H868        H  0.25944020  0.46886069  0.19317665     0.09500
Br869      Br  0.33127150  0.44195529  0.33109495    -0.06100
Br870      Br  0.21688495  0.44162653  0.44313447    -0.03000
Br871      Br  0.30573096  0.54645037  0.26888922    -0.00200
Br872      Br  0.24901666  0.42800847  0.26166600    -0.04500
C873        C  0.27593194  0.45883086  0.72240194    -0.11900
C874        C  0.25910526  0.48142584  0.72580810     0.03500
C875        C  0.25840153  0.49579296  0.76625281    -0.12500
C876        C  0.27406498  0.48815985  0.80344724     0.18400
C877        C  0.28981222  0.46518161  0.80107277    -0.09500
C878        C  0.29064838  0.45074658  0.76090547    -0.02500
H879        H  0.24575502  0.51318283  0.76862849     0.04900
C880        C  0.27237045  0.50312552  0.84590418     0.20400
H881        H  0.30351753  0.43348445  0.75952963     0.10100
C882        C  0.25521184  0.49383655  0.87922318    -0.15900
C883        C  0.25528499  0.50480718  0.92242451     0.03100
C884        C  0.27277646  0.52600264  0.93284470    -0.11200
C885        C  0.28886785  0.53631719  0.89817959    -0.01200
C886        C  0.28891576  0.52485378  0.85496668    -0.06400
H887        H  0.24237916  0.47716654  0.87199057     0.06100
H888        H  0.30244899  0.55238482  0.90526441     0.09500
Br889      Br  0.31100150  0.45318884  0.85165348    -0.06100
Br890      Br  0.23751379  0.49505997  0.67683081    -0.03000
Br891      Br  0.23124542  0.48869804  0.96474453    -0.00200
Br892      Br  0.31296312  0.53825081  0.81022870    -0.04500
C893        C  0.41413328  0.17152302  0.97758535    -0.11900
C894        C  0.42398749  0.15387388  0.01108289     0.03500
C895        C  0.40796270  0.13310914  0.02646463    -0.12500
C896        C  0.38217233  0.12970170  0.00905749     0.18400
C897        C  0.37308672  0.14608685  0.97343935    -0.09500
C898        C  0.38908230  0.16669674  0.95785191    -0.02500
H899        H  0.41490762  0.12074431  0.05426305     0.04900
C900        C  0.36340021  0.11210023  0.03273668     0.20400
H901        H  0.38106563  0.18027390  0.93263881     0.10100
C902        C  0.34732179  0.12298628  0.06668592    -0.15900
C903        C  0.32588305  0.10884608  0.08435235     0.03100
C904        C  0.32038027  0.08311842  0.06818310    -0.11200
C905        C  0.33801734  0.07144143  0.03704855    -0.01200
C906        C  0.35925862  0.08585510  0.01896728    -0.06400
H907        H  0.35061440  0.14314277  0.07772529     0.06100
H908        H  0.33400167  0.05188636  0.02382019     0.09500
Br909      Br  0.33779348  0.14283791  0.94860490    -0.06100
Br910      Br  0.45714947  0.15960612  0.04228563    -0.03000
Br911      Br  0.30417008  0.12629988  0.12885698    -0.00200
Br912      Br  0.38060937  0.06995136  0.97264075    -0.04500
C913        C  0.32175543  0.34032975  0.67449421    -0.11900
C914        C  0.34846394  0.33404209  0.68533570     0.03500
C915        C  0.35422434  0.31650345  0.72063393    -0.12500
C916        C  0.33382291  0.30477901  0.74582246     0.18400
C917        C  0.30706638  0.30998133  0.73379761    -0.09500
C918        C  0.30117643  0.32752902  0.69795451    -0.02500
H919        H  0.37488412  0.31270350  0.72959822     0.04900
C920        C  0.34170749  0.28993510  0.78724070     0.20400
H921        H  0.28056812  0.33208658  0.68980611     0.10100
C922        C  0.33777238  0.30197076  0.82958010    -0.15900
C923        C  0.35286733  0.29416194  0.86752772     0.03100
C924        C  0.37225252  0.27404201  0.86317525    -0.11200
C925        C  0.37411115  0.26019273  0.82210920    -0.01200
C926        C  0.35885418  0.26784805  0.78437958    -0.06400
H927        H  0.32487348  0.31916332  0.83210495     0.06100
H928        H  0.38888566  0.24463565  0.81841931     0.09500
Br929      Br  0.27821489  0.29391514  0.76582951    -0.06100
Br930      Br  0.37806515  0.34880913  0.65315745    -0.03000
Br931      Br  0.34942469  0.31453737  0.92209126    -0.00200
Br932      Br  0.36395532  0.24929939  0.72836149    -0.04500
C933        C  0.40329674  0.34068765  0.00824540    -0.11900
C934        C  0.38370042  0.34126921  0.04275487     0.03500
C935        C  0.37102704  0.36513628  0.05373191    -0.12500
C936        C  0.37720646  0.38865161  0.03100056     0.18400
C937        C  0.39717918  0.38840985  0.99773800    -0.09500
C938        C  0.40990672  0.36463173  0.98653467    -0.02500
H939        H  0.35580989  0.36528437  0.07968034     0.04900
C940        C  0.36285486  0.41325220  0.04323154     0.20400
H941        H  0.42497238  0.36492019  0.96035937     0.10100
C942        C  0.36802975  0.42489949  0.08544486    -0.15900
C943        C  0.35491000  0.44814906  0.09836105     0.03100
C944        C  0.33624984  0.46019121  0.06871719    -0.11200
C945        C  0.33037116  0.44802760  0.02709643    -0.01200
C946        C  0.34349526  0.42469466  0.01424001    -0.06400
H947        H  0.38234203  0.41582618  0.10845849     0.06100
H948        H  0.31585643  0.45691990  0.00423785     0.09500
Br949      Br  0.40804281  0.42014039  0.96726416    -0.06100
Br950      Br  0.37172330  0.31043288  0.07482383    -0.03000
Br951      Br  0.36199416  0.46175874  0.15796751    -0.00200
Br952      Br  0.33391160  0.40876978  0.95744800    -0.04500
C953        C  0.91041602  0.28572939  0.99439632    -0.11900
C954        C  0.92012317  0.30441194  0.02605876     0.03500
C955        C  0.90392450  0.32569875  0.03940197    -0.12500
C956        C  0.87822113  0.32890657  0.02132405     0.18400
C957        C  0.86945016  0.31167668  0.98697298    -0.09500
C958        C  0.88541440  0.29026012  0.97398941    -0.02500
H959        H  0.91080753  0.33891179  0.06581897     0.04900
C960        C  0.85940630  0.34792310  0.04215114     0.20400
H961        H  0.87759407  0.27619918  0.94969844     0.10100
C962        C  0.85591985  0.37315726  0.02311997    -0.15900
C963        C  0.83455127  0.38936518  0.03633636     0.03100
C964        C  0.81624862  0.38025773  0.06904626    -0.11200
C965        C  0.82098060  0.35574180  0.09025261    -0.01200
C966        C  0.84241928  0.33969441  0.07727400    -0.06400
H967        H  0.86882505  0.37955601  0.99591759     0.06100
H968        H  0.80696511  0.34831378  0.11498888     0.09500
Br969      Br  0.83479952  0.31537017  0.95967571    -0.06100
Br970      Br  0.95374535  0.30028063  0.05663270    -0.03000
Br971      Br  0.82913379  0.42191943  0.00381327    -0.00200
Br972      Br  0.84633523  0.30558352  0.10541877    -0.04500
C973        C  0.64633157  0.37509683  0.02177368    -0.11900
C974        C  0.64619742  0.35521391  0.98784091     0.03500
C975        C  0.62248120  0.34203492  0.97743478    -0.12500
C976        C  0.59885171  0.34807786  0.00022121     0.18400
C977        C  0.59862154  0.36822408  0.03280228    -0.09500
C978        C  0.62206953  0.38171824  0.04291965    -0.02500
H979        H  0.62256976  0.32652490  0.95212158     0.04900
C980        C  0.57463563  0.33288142  0.99012693     0.20400
H981        H  0.62141772  0.39682060  0.06889487     0.10100
C982        C  0.56997230  0.30922903  0.01363439    -0.15900
C983        C  0.54682226  0.29463815  0.00550392     0.03100
C984        C  0.52811641  0.30367437  0.97284960    -0.11200
C985        C  0.53289239  0.32752587  0.94970801    -0.01200
C986        C  0.55589690  0.34211551  0.95818985    -0.06400
H987        H  0.58419616  0.30236394  0.03892929     0.06100
H988        H  0.51876064  0.33478355  0.92458964     0.09500
Br989      Br  0.56697056  0.37705346  0.06584980    -0.06100
Br990      Br  0.67741667  0.34346359  0.95604834    -0.03000
Br991      Br  0.54103739  0.26382596  0.04242506    -0.00200
Br992      Br  0.56091375  0.37465195  0.92575994    -0.04500
C993        C  0.61322656  0.17861278  0.48419140    -0.11900
C994        C  0.63745342  0.17070436  0.46398348     0.03500
C995        C  0.65156574  0.14891893  0.48123938    -0.12500
C996        C  0.64203950  0.13465030  0.51858002     0.18400
C997        C  0.61696150  0.14120595  0.53663340    -0.09500
C998        C  0.60263788  0.16293939  0.51918784    -0.02500
H999        H  0.67074900  0.14385716  0.46684177     0.04900
C1000       C  0.66014011  0.11523765  0.54084269     0.20400
H1001       H  0.58418878  0.16876471  0.53537809     0.10100
C1002       C  0.67447828  0.12312877  0.57949383    -0.15900
C1003       C  0.69605109  0.10805590  0.59572040     0.03100
C1004       C  0.70312538  0.08421950  0.57390166    -0.11200
C1005       C  0.68731685  0.07529380  0.53757850    -0.01200
C1006       C  0.66630779  0.09084205  0.52046025    -0.06400
H1007       H  0.67002349  0.14197883  0.59520908     0.06100
H1008       H  0.69286402  0.05741144  0.51969969     0.09500
Br1009     Br  0.60233825  0.12183669  0.58656212    -0.06100
Br1010     Br  0.65278393  0.18955050  0.41387706    -0.03000
Br1011     Br  0.71637492  0.12180958  0.64572729    -0.00200
Br1012     Br  0.64813647  0.07922801  0.46674536    -0.04500
C1013       C  0.50050799  0.31397716  0.47432988    -0.11900
C1014       C  0.49634000  0.34029832  0.45891806     0.03500
C1015       C  0.47322763  0.35407108  0.47114461    -0.12500
C1016       C  0.45403243  0.34225340  0.49863137     0.18400
C1017       C  0.45803172  0.31625028  0.51432643    -0.09500
C1018       C  0.48106036  0.30228859  0.50208587    -0.02500
H1019       H  0.47005334  0.37399286  0.45878501     0.04900
C1020       C  0.42950560  0.35713604  0.50923688     0.20400
H1021       H  0.48383322  0.28235802  0.51465114     0.10100
C1022       C  0.40779124  0.35583471  0.47924114    -0.15900
C1023       C  0.38369408  0.36849825  0.48935439     0.03100
C1024       C  0.38111716  0.38274523  0.53027538    -0.11200
C1025       C  0.40354037  0.38536048  0.55877946    -0.01200
C1026       C  0.42753941  0.37252765  0.54870859    -0.06400
H1027       H  0.40949100  0.34455385  0.44816277     0.06100
H1028       H  0.40201313  0.39620634  0.59033328     0.09500
Br1029     Br  0.43248761  0.29907574  0.55244581    -0.06100
Br1030     Br  0.52025589  0.35858724  0.41909341    -0.03000
Br1031     Br  0.35532696  0.36618085  0.44550890    -0.00200
Br1032     Br  0.45676018  0.37552682  0.59064036    -0.04500
C1033       C  0.56494831  0.25086044  0.61268846    -0.11900
C1034       C  0.54756047  0.27023601  0.63000996     0.03500
C1035       C  0.53688930  0.26718789  0.67327608    -0.12500
C1036       C  0.54338541  0.24506000  0.70009198     0.18400
C1037       C  0.56142213  0.22602807  0.68334390    -0.09500
C1038       C  0.57216649  0.22908249  0.63981991    -0.02500
H1039       H  0.52317381  0.28202803  0.68593541     0.04900
C1040       C  0.53080895  0.24262823  0.74518216     0.20400
H1041       H  0.58529891  0.21393878  0.62646815     0.10100
C1042       C  0.51153578  0.22302477  0.75293736    -0.15900
C1043       C  0.49634377  0.22305869  0.79286199     0.03100
C1044       C  0.50024309  0.24315661  0.82518741    -0.11200
C1045       C  0.52036103  0.26191043  0.81808382    -0.01200
C1046       C  0.53559821  0.26174073  0.77875164    -0.06400
H1047       H  0.50753766  0.20837700  0.72706209     0.06100
H1048       H  0.52391626  0.27721754  0.84305001     0.09500
Br1049     Br  0.57177557  0.19566571  0.71852882    -0.06100
Br1050     Br  0.53783424  0.30123061  0.59565625    -0.03000
Br1051     Br  0.46912906  0.19691683  0.79970290    -0.00200
Br1052     Br  0.56236888  0.28846003  0.77206994    -0.04500
C1053       C  0.46835572  0.23749264  0.10995662    -0.11900
C1054       C  0.46079384  0.25573654  0.14375553     0.03500
C1055       C  0.47271593  0.25445716  0.18680712    -0.12500
C1056       C  0.49225992  0.23533452  0.19695186     0.18400
C1057       C  0.49899497  0.21641603  0.16406562    -0.09500
C1058       C  0.48715195  0.21765648  0.12099154    -0.02500
H1059       H  0.46768147  0.26928338  0.21188312     0.04900
C1060       C  0.50755937  0.23757620  0.23980384     0.20400
H1061       H  0.49326772  0.20348234  0.09551654     0.10100
C1062       C  0.50250129  0.22046412  0.27628521    -0.15900
C1063       C  0.51555847  0.22371795  0.31820682     0.03100
C1064       C  0.53409422  0.24450020  0.32387716    -0.11200
C1065       C  0.53977237  0.26076868  0.28633043    -0.01200
C1066       C  0.52670934  0.25752671  0.24485204    -0.06400
H1067       H  0.48781297  0.20498959  0.27247474     0.06100
H1068       H  0.55415373  0.27658287  0.28939226     0.09500
Br1069     Br  0.52556484  0.18974249  0.17556607    -0.06100
Br1070     Br  0.43682844  0.28468027  0.13189830    -0.03000
Br1071     Br  0.50560984  0.20035405  0.36662583    -0.00200
Br1072     Br  0.53544838  0.28116354  0.19606507    -0.04500
C1073       C  0.70493223  0.33942038  0.16821163    -0.11900
C1074       C  0.67823468  0.33375506  0.17849734     0.03500
C1075       C  0.67233546  0.31695186  0.21443360    -0.12500
C1076       C  0.69269573  0.30522532  0.24045106     0.18400
C1077       C  0.71945703  0.30865114  0.22728435    -0.09500
C1078       C  0.72546933  0.32603360  0.19149428    -0.02500
H1079       H  0.65165553  0.31407915  0.22357692     0.04900
C1080       C  0.68470429  0.29199385  0.28311783     0.20400
H1081       H  0.74608441  0.32999538  0.18328031     0.10100
C1082       C  0.66638446  0.27116353  0.28030818    -0.15900
C1083       C  0.65062586  0.26442743  0.31749458     0.03100
C1084       C  0.65375556  0.27795910  0.35889034    -0.11200
C1085       C  0.67404067  0.29675462  0.36320703    -0.01200
C1086       C  0.68911551  0.30427073  0.32549580    -0.06400
H1087       H  0.66251028  0.26186966  0.24786485     0.06100
H1088       H  0.67618266  0.30767618  0.39459074     0.09500
Br1089     Br  0.74810062  0.29038705  0.25750456    -0.06100
Br1090     Br  0.64895580  0.34956683  0.14589526    -0.03000
Br1091     Br  0.62328208  0.23845971  0.30884669    -0.00200
Br1092     Br  0.71173614  0.33456729  0.33205199    -0.04500
C1093       C  0.90884684  0.67974868  0.49076931    -0.11900
C1094       C  0.91988947  0.65827595  0.51571226     0.03500
C1095       C  0.90346891  0.63731089  0.52970763    -0.12500
C1096       C  0.87613644  0.63732014  0.51924000     0.18400
C1097       C  0.86557096  0.65770907  0.49189448    -0.09500
C1098       C  0.88183996  0.67844108  0.47769032    -0.02500
H1099       H  0.91178778  0.62158320  0.55055452     0.04900
C1100       C  0.85807840  0.61733889  0.53926305     0.20400
H1101       H  0.87283749  0.69454389  0.45854463     0.10100
C1102       C  0.84303893  0.62429167  0.57751634    -0.15900
C1103       C  0.82127451  0.60895746  0.59101698     0.03100
C1104       C  0.81442990  0.58611111  0.56640317    -0.11200
C1105       C  0.83091914  0.57792005  0.53065084    -0.01200
C1106       C  0.85250672  0.59345242  0.51679842    -0.06400
H1107       H  0.84721654  0.64258457  0.59517668     0.06100
H1108       H  0.82571427  0.56057369  0.51106781     0.09500
Br1109     Br  0.82842955  0.65902307  0.47579351    -0.06100
Br1110     Br  0.95631589  0.65765147  0.53597858    -0.03000
Br1111     Br  0.80063014  0.62054189  0.64191166    -0.00200
Br1112     Br  0.87212191  0.58285807  0.46421022    -0.04500
C1113       C  0.68956336  0.46430427  0.58052612    -0.11900
C1114       C  0.66767060  0.45510545  0.60586380     0.03500
C1115       C  0.65534450  0.43139039  0.59387495    -0.12500
C1116       C  0.66469706  0.41652772  0.55719669     0.18400
C1117       C  0.68725133  0.42503130  0.53322021    -0.09500
C1118       C  0.69956970  0.44875568  0.54504938    -0.02500
H1119       H  0.63823487  0.42465048  0.61285740     0.04900
C1120       C  0.64997779  0.39288394  0.54278144     0.20400
H1121       H  0.71654009  0.45543369  0.52564762     0.10100
C1122       C  0.63366007  0.39456718  0.50423856    -0.15900
C1123       C  0.62053658  0.37231423  0.48746501     0.03100
C1124       C  0.62386556  0.34749791  0.50956234    -0.11200
C1125       C  0.63956254  0.34635070  0.54942539    -0.01200
C1126       C  0.65252017  0.36874490  0.56602128    -0.06400
H1127       H  0.63142780  0.41334525  0.48671450     0.06100
H1128       H  0.64243861  0.32780371  0.56734272     0.09500
Br1129     Br  0.70171755  0.40485316  0.48402112    -0.06100
Br1130     Br  0.65455092  0.47342682  0.65827065    -0.03000
Br1131     Br  0.59868070  0.37805025  0.43446031    -0.00200
Br1132     Br  0.67446240  0.36525428  0.61928291    -0.04500
C1133       C  0.52066305  0.65213784  0.46497592    -0.11900
C1134       C  0.52671277  0.62768056  0.44409656     0.03500
C1135       C  0.55022985  0.61411466  0.45566152    -0.12500
C1136       C  0.56786974  0.62435559  0.48806698     0.18400
C1137       C  0.56197750  0.64871486  0.50883461    -0.09500
C1138       C  0.53865537  0.66247265  0.49700113    -0.02500
H1139       H  0.55480754  0.59548243  0.43928870     0.04900
C1140       C  0.59246282  0.60953623  0.49973585     0.20400
H1141       H  0.53435757  0.68114672  0.51346796     0.10100
C1142       C  0.61509356  0.61244191  0.47265966    -0.15900
C1143       C  0.63942726  0.60056860  0.48492443     0.03100
C1144       C  0.64141413  0.58549260  0.52559075    -0.11200
C1145       C  0.61801247  0.58146092  0.55096966    -0.01200
C1146       C  0.59382177  0.59331681  0.53841905    -0.06400
H1147       H  0.61394594  0.62454233  0.44227909     0.06100
H1148       H  0.61859252  0.56984088  0.58190108     0.09500
Br1149     Br  0.58521748  0.66380917  0.55366762    -0.06100
Br1150     Br  0.50457293  0.61245032  0.39776701    -0.03000
Br1151     Br  0.66864432  0.60620069  0.44416872    -0.00200
Br1152     Br  0.56324938  0.58753616  0.57589132    -0.04500
C1153       C  0.74360816  0.52629292  0.43678876    -0.11900
C1154       C  0.75389939  0.53982696  0.39889420     0.03500
C1155       C  0.75430801  0.52735964  0.35640009    -0.12500
C1156       C  0.74420710  0.50166808  0.35089495     0.18400
C1157       C  0.73339224  0.48847480  0.38856457    -0.09500
C1158       C  0.73337082  0.50068937  0.43092208    -0.02500
H1159       H  0.76263886  0.53767420  0.32755135     0.04900
C1160       C  0.74449899  0.48896011  0.30569050     0.20400
H1161       H  0.72501182  0.49014313  0.45952267     0.10100
C1162       C  0.75978695  0.46587863  0.29895488    -0.15900
C1163       C  0.75848778  0.45206359  0.25780431     0.03100
C1164       C  0.74188714  0.46152100  0.22267452    -0.11200
C1165       C  0.72711490  0.48486725  0.22910712    -0.01200
C1166       C  0.72832877  0.49861215  0.27006634    -0.06400
H1167       H  0.77211924  0.45817254  0.32631813     0.06100
H1168       H  0.71415827  0.49221610  0.20225464     0.09500
Br1169     Br  0.71738176  0.45417247  0.38370645    -0.06100
Br1170     Br  0.76896346  0.57450718  0.40367217    -0.03000
Br1171     Br  0.77769154  0.41932370  0.25247858    -0.00200
Br1172     Br  0.70617245  0.52944853  0.27654836    -0.04500
C1173       C  0.74775846  0.51163325  0.72907045    -0.11900
C1174       C  0.73420013  0.52034389  0.76825657     0.03500
C1175       C  0.73701850  0.50630860  0.80893020    -0.12500
C1176       C  0.75315806  0.48365648  0.81131492     0.18400
C1177       C  0.76763908  0.47562530  0.77306128    -0.09500
C1178       C  0.76505364  0.48973236  0.73237019    -0.02500
H1179       H  0.72611711  0.51272537  0.83859243     0.04900
C1180       C  0.75360027  0.46802207  0.85350008     0.20400
H1181       H  0.77533252  0.48257844  0.70257326     0.10100
C1182       C  0.73280567  0.45028773  0.86186648    -0.15900
C1183       C  0.73151169  0.43644761  0.90296154     0.03100
C1184       C  0.75150022  0.44014550  0.93615276    -0.11200
C1185       C  0.77254087  0.45762358  0.92717625    -0.01200
C1186       C  0.77363851  0.47159795  0.88631362    -0.06400
H1187       H  0.71707352  0.44788185  0.83688745     0.06100
H1188       H  0.78772500  0.46110491  0.95272943     0.09500
Br1189     Br  0.78967654  0.44449617  0.77427799    -0.06100
Br1190     Br  0.71155618  0.55116376  0.76847034    -0.03000
Br1191     Br  0.70048092  0.41537546  0.91381677    -0.00200
Br1192     Br  0.80187952  0.49651160  0.87775080    -0.04500
C1193       C  0.60853535  0.78949007  0.98611953    -0.11900
C1194       C  0.62860353  0.80094968  0.95949691     0.03500
C1195       C  0.64404732  0.82155299  0.97716004    -0.12500
C1196       C  0.63998085  0.83071513  0.02155012     0.18400
C1197       C  0.61841703  0.82081997  0.04667213    -0.09500
C1198       C  0.60278697  0.80042273  0.02876174    -0.02500
H1199       H  0.66039091  0.82925529  0.95732281     0.04900
C1200       C  0.66052552  0.84777120  0.04264576     0.20400
H1201       H  0.58758195  0.79157702  0.04981658     0.10100
C1202       C  0.66283105  0.87427586  0.02912474    -0.15900
C1203       C  0.68470047  0.88954202  0.04293809     0.03100
C1204       C  0.70472532  0.87825346  0.07105385    -0.11200
C1205       C  0.70154625  0.85207178  0.08628683    -0.01200
C1206       C  0.67989107  0.83682077  0.07210815    -0.06400
H1207       H  0.64827358  0.88269537  0.00584315     0.06100
H1208       H  0.71689411  0.84285808  0.10711260     0.09500
Br1209     Br  0.61110714  0.83305138  0.10692453    -0.06100
Br1210     Br  0.63642648  0.78793196  0.89996799    -0.03000
Br1211     Br  0.68784311  0.92427647  0.01705440    -0.00200
Br1212     Br  0.67927730  0.80022025  0.08980866    -0.04500
C1213       C  0.49789859  0.65534027  0.96506512    -0.11900
C1214       C  0.48129958  0.66224837  0.00172767     0.03500
C1215       C  0.45839538  0.64750976  0.01054212    -0.12500
C1216       C  0.45167098  0.62553912  0.98388776     0.18400
C1217       C  0.46790009  0.61894913  0.94664415    -0.09500
C1218       C  0.49087962  0.63369432  0.93775219    -0.02500
H1219       H  0.44600877  0.65287004  0.03911632     0.04900
C1220       C  0.42810697  0.60953440  0.99667424     0.20400
H1221       H  0.50330222  0.62825700  0.90927229     0.10100
C1222       C  0.40609382  0.60799700  0.96719207    -0.15900
C1223       C  0.38278406  0.59477001  0.98001574     0.03100
C1224       C  0.38103393  0.58305869  0.02367516    -0.11200
C1225       C  0.40362095  0.58378235  0.05220805    -0.01200
C1226       C  0.42685627  0.59681764  0.03920319    -0.06400
H1227       H  0.40687203  0.61756700  0.93427116     0.06100
H1228       H  0.40298190  0.57501153  0.08577357     0.09500
Br1229     Br  0.46013801  0.58950234  0.90792522    -0.06100
Br1230     Br  0.48985726  0.69016272  0.04329443    -0.03000
Br1231     Br  0.35455695  0.59314269  0.93575723    -0.00200
Br1232     Br  0.45629662  0.59679086  0.08119708    -0.04500
C1233       C  0.55686380  0.72023566  0.10821700    -0.11900
C1234       C  0.56867415  0.70695853  0.14561755     0.03500
C1235       C  0.55599713  0.70750911  0.18788377    -0.12500
C1236       C  0.53187470  0.72124000  0.19344644     0.18400
C1237       C  0.52098583  0.73570254  0.15712978    -0.09500
C1238       C  0.53350247  0.73524194  0.11518776    -0.02500
H1239       H  0.56443651  0.69640512  0.21607056     0.04900
C1240       C  0.51694633  0.71863837  0.23592753     0.20400
H1241       H  0.52432510  0.74611409  0.08739537     0.10100
C1242       C  0.52247482  0.73555745  0.27223018    -0.15900
C1243       C  0.50781853  0.73402415  0.31240388     0.03100
C1244       C  0.48696292  0.71540567  0.31619144    -0.11200
C1245       C  0.48148784  0.69867835  0.27927498    -0.01200
C1246       C  0.49633827  0.70008639  0.23954255    -0.06400
H1247       H  0.53841513  0.74983233  0.26939431     0.06100
H1248       H  0.46582598  0.68406702  0.28155174     0.09500
Br1249     Br  0.48822127  0.75520950  0.16268596    -0.06100
Br1250     Br  0.60079584  0.68640877  0.14102116    -0.03000
Br1251     Br  0.51888645  0.75642033  0.36148716    -0.00200
Br1252     Br  0.48817312  0.67593868  0.19128111    -0.04500
C1253       C  0.53369182  0.72183555  0.81817500    -0.11900
C1254       C  0.50687921  0.73005453  0.81485780     0.03500
C1255       C  0.49387997  0.72967182  0.77272472    -0.12500
C1256       C  0.50703204  0.72049948  0.73387654     0.18400
C1257       C  0.53404657  0.71275454  0.73715898    -0.09500
C1258       C  0.54710686  0.71362239  0.77902528    -0.02500
H1259       H  0.47321362  0.73589442  0.77044779     0.04900
C1260       C  0.49274148  0.72020917  0.68986248     0.20400
H1261       H  0.56751629  0.70656564  0.78150690     0.10100
C1262       C  0.50259736  0.73584889  0.65473453    -0.15900
C1263       C  0.49096515  0.73551779  0.61178171     0.03100
C1264       C  0.46794443  0.71998360  0.60351537    -0.11200
C1265       C  0.45742581  0.70499519  0.63937414    -0.01200
C1266       C  0.46986338  0.70470996  0.68216401    -0.06400
H1267       H  0.51996848  0.74805019  0.66059039     0.06100
H1268       H  0.44023715  0.69255629  0.63360058     0.09500
Br1269     Br  0.55352726  0.69874245  0.68657879    -0.06100
Br1270     Br  0.48629823  0.73895059  0.86736776    -0.03000
Br1271     Br  0.50844956  0.75680619  0.56677068    -0.00200
Br1272     Br  0.45606839  0.68144134  0.72780273    -0.04500
C1273       C  0.70351157  0.62597555  0.67297782    -0.11900
C1274       C  0.67710831  0.63404006  0.68098927     0.03500
C1275       C  0.67148565  0.65105987  0.71676494    -0.12500
C1276       C  0.69186359  0.66076183  0.74494711     0.18400
C1277       C  0.71852531  0.65341630  0.73589848    -0.09500
C1278       C  0.72415848  0.63607694  0.70000309    -0.02500
H1279       H  0.65084093  0.65583695  0.72380058     0.04900
C1280       C  0.68383944  0.67556508  0.78621633     0.20400
H1281       H  0.74448054  0.62955353  0.69451346     0.10100
C1282       C  0.69004663  0.66490300  0.82915294    -0.15900
C1283       C  0.67620434  0.67306503  0.86783221     0.03100
C1284       C  0.65492607  0.69118258  0.86336738    -0.11200
C1285       C  0.65083093  0.70402195  0.82160781    -0.01200
C1286       C  0.66542139  0.69672311  0.78336108    -0.06400
H1287       H  0.70409804  0.64864171  0.83218371     0.06100
H1288       H  0.63483725  0.71839341  0.81794332     0.09500
Br1289     Br  0.74775332  0.66595888  0.77197281    -0.06100
Br1290     Br  0.64777012  0.62115942  0.64531567    -0.03000
Br1291     Br  0.68489110  0.65641219  0.92458104    -0.00200
Br1292     Br  0.65776317  0.71467507  0.72719745    -0.04500
C1293       C  0.62316877  0.61993585  0.00534046    -0.11900
C1294       C  0.61717409  0.60847888  0.04765324     0.03500
C1295       C  0.63019039  0.58513177  0.06134676    -0.12500
C1296       C  0.64921655  0.57308345  0.03331329     0.18400
C1297       C  0.65482836  0.58428644  0.99074643    -0.09500
C1298       C  0.64158344  0.60731641  0.97688888    -0.02500
H1299       H  0.62520277  0.57613626  0.09358718     0.04900
C1300       C  0.66174162  0.54783926  0.04726266     0.20400
H1301       H  0.64580186  0.61550712  0.94375173     0.10100
C1302       C  0.64862932  0.52420879  0.03723632    -0.15900
C1303       C  0.66040952  0.49970916  0.04716374     0.03100
C1304       C  0.68596376  0.49860710  0.06802425    -0.11200
C1305       C  0.69895220  0.52252940  0.07808802    -0.01200
C1306       C  0.68704854  0.54696337  0.06791445    -0.06400
H1307       H  0.62928649  0.52485950  0.02067930     0.06100
H1308       H  0.71839999  0.52230048  0.09426283     0.09500
Br1309     Br  0.68021841  0.56860381  0.95028947    -0.06100
Br1310     Br  0.58962359  0.62248875  0.08553387    -0.03000
Br1311     Br  0.64081371  0.46895341  0.02854313    -0.00200
Br1312     Br  0.70601761  0.57867498  0.08255173    -0.04500
loop_ 
_geom_bond_atom_site_label_1 
_geom_bond_atom_site_label_2 
_geom_bond_distance 
_geom_bond_site_symmetry_2 
_ccdc_geom_bond_type 
Fe1          O17   2.090       .  S
Fe1           O7   2.030   1_556  S
Fe1          O14   2.065       .  S
Fe1           O6   2.089       .  S
Fe1          O12   1.961       .  S
Fe2           O5   2.065       .  S
Fe2           O9   2.059       .  S
Fe2          O13   2.049       .  S
Fe2          O18   2.043       .  S
Fe2          O12   1.952       .  S
Fe3          O21   2.067   1_556  S
Fe3           O8   2.103       .  S
Fe3          O15   2.092   1_556  S
Fe3           O4   2.054       .  S
Fe3          O12   1.960       .  S
O4           C11   1.267       .  A
O5           C19   1.265       .  A
O6           C11   1.272       .  A
O7           C10   1.266       .  A
O8           C20   1.278       .  A
O9           C22   1.272       .  A
C10          O15   1.274       .  A
C10        C1233   1.481       .  S
C11        C1193   1.474       .  S
O13          C16   1.264       .  A
O14          C16   1.268       .  A
C16        C1253   1.466       .  S
O17          C22   1.275       .  A
O18          C20   1.270       .  A
C19          O21   1.266   1_556  A
C19        C1293   1.474   1_556  S
C20        C1284   1.473       .  S
C22        C1213   1.480       .  S
Fe23         O39   2.079       .  S
Fe23         O29   2.042       .  S
Fe23         O36   2.064       .  S
Fe23         O28   2.083       .  S
Fe23         O34   1.975       .  S
Fe24         O27   2.061       .  S
Fe24         O31   2.043       .  S
Fe24         O35   2.060       .  S
Fe24         O40   2.043       .  S
Fe24         O34   1.963       .  S
Fe25         O43   2.062       .  S
Fe25         O30   2.094       .  S
Fe25         O37   2.096       .  S
Fe25         O26   2.054       .  S
Fe25         O34   1.969       .  S
O26          C33   1.264       .  A
O27          C41   1.266       .  A
O28          C33   1.268       .  A
O29          C32   1.269       .  A
O30          C42   1.277       .  A
O31          C44   1.265       .  A
C32          O37   1.278       .  A
C32        C1153   1.478       .  S
C33        C1104   1.478       .  S
O35          C38   1.268       .  A
O36          C38   1.270       .  A
C38        C1173   1.475       .  S
O39          C44   1.271       .  A
O40          C42   1.269       .  A
C41          O43   1.264       .  A
C41        C1144   1.495       .  S
C42        C1273   1.466       .  S
C44        C1113   1.472       .  S
Fe45         O61   2.070       .  S
Fe45         O51   2.101       .  S
Fe45         O58   2.101       .  S
Fe45         O50   2.039       .  S
Fe45         O56   1.951       .  S
Fe46         O49   2.041       .  S
Fe46         O53   2.069       .  S
Fe46         O57   2.044       .  S
Fe46         O62   2.071       .  S
Fe46         O56   1.940       .  S
Fe47         O65   2.105       .  S
Fe47         O52   2.052       .  S
Fe47         O59   2.041       .  S
Fe47         O48   2.096       .  S
Fe47         O56   1.949       .  S
O48          C55   1.275       .  A
O49          C63   1.269       .  A
O50          C55   1.267       .  A
O51          C54   1.276       .  A
O52          C64   1.265       .  A
O53          C66   1.270       .  A
C54          O59   1.265       .  A
C54         C993   1.481       .  S
C55        C1033   1.467       .  S
O57          C60   1.267       .  A
O58          C60   1.278       .  A
C60        C1013   1.486       .  S
O61          C66   1.270       .  A
O62          C64   1.266       .  A
C63          O65   1.278       .  A
C63        C1084   1.472       .  S
C64        C1124   1.488       .  S
C66        C1064   1.488       .  S
Fe67         O83   2.068       .  S
Fe67         O73   2.091       .  S
Fe67         O80   2.102       .  S
Fe67         O72   2.038       .  S
Fe67         O78   1.961       .  S
Fe68         O71   2.045       .  S
Fe68         O75   2.063       .  S
Fe68         O79   2.043       .  S
Fe68         O84   2.057       .  S
Fe68         O78   1.950       .  S
Fe69         O87   2.101       .  S
Fe69         O74   2.056       .  S
Fe69         O81   2.047       .  S
Fe69         O70   2.089   1_554  S
Fe69         O78   1.958       .  S
O70          C77   1.276       .  A
O71          C85   1.273       .  A
O72          C77   1.267   1_554  A
O73          C76   1.273       .  A
O74          C86   1.261       .  A
O75          C88   1.265       .  A
C76          O81   1.265       .  A
C76         C964   1.479       .  S
C77        C1184   1.472       .  S
O79          C82   1.268       .  A
O80          C82   1.279       .  A
C82        C1304   1.487       .  S
O83          C88   1.267       .  A
O84          C86   1.264       .  A
C85          O87   1.279       .  A
C85        C1073   1.466       .  S
C86         C973   1.487       .  S
C88        C1164   1.471       .  S
Fe89        O105   2.095       .  S
Fe89         O95   2.048   1_556  S
Fe89        O102   2.075       .  S
Fe89         O94   2.087       .  S
Fe89        O100   1.961       .  S
Fe90         O93   2.072       .  S
Fe90         O97   2.045       .  S
Fe90        O101   2.056       .  S
Fe90        O106   2.045       .  S
Fe90        O100   1.948       .  S
Fe91        O109   2.057   1_556  S
Fe91         O96   2.108       .  S
Fe91        O103   2.091   1_556  S
Fe91         O92   2.045       .  S
Fe91        O100   1.950       .  S
O92          C99   1.267       .  A
O93         C107   1.266       .  A
O94          C99   1.273       .  A
O95          C98   1.268       .  A
O96         C108   1.280       .  A
O97         C110   1.273       .  A
C98         O103   1.275       .  A
C98        C1053   1.482       .  S
C99         C893   1.476       .  S
O101        C104   1.264       .  A
O102        C104   1.267       .  A
C104       C1044   1.476       .  S
O105        C110   1.278       .  A
O106        C108   1.272       .  A
C107        O109   1.261   1_556  A
C107        C933   1.490   1_556  S
C108        C924   1.473       .  S
C110        C984   1.475       .  S
Fe111       O127   2.063       .  S
Fe111       O117   2.067       .  S
Fe111       O124   2.062       .  S
Fe111       O116   2.067       .  S
Fe111       O122   1.970       .  S
Fe112       O115   2.057       .  S
Fe112       O119   2.064       .  S
Fe112       O123   2.049       .  S
Fe112       O128   2.070       .  S
Fe112       O122   1.959       .  S
Fe113       O131   2.064       .  S
Fe113       O118   2.078       .  S
Fe113       O125   2.076       .  S
Fe113       O114   2.064       .  S
Fe113       O122   1.962       .  S
O114        C121   1.268       .  A
O115        C129   1.265       .  A
O116        C121   1.267       .  A
O117        C120   1.270       .  A
O118        C130   1.274       .  A
O119        C132   1.271       .  A
C120        O125   1.274       .  A
C120        C853   1.483       .  S
C121        C813   1.477       .  S
O123        C126   1.268       .  A
O124        C126   1.267       .  A
C126        C873   1.483       .  S
O127        C132   1.268       .  A
O128        C130   1.273       .  A
C129        O131   1.266       .  A
C129       C1024   1.479       .  S
C130        C913   1.476       .  S
C132        C833   1.485       .  S
Fe133       O149   2.055       .  S
Fe133       O139   2.099       .  S
Fe133       O146   2.100       .  S
Fe133       O138   2.023       .  S
Fe133       O144   1.953       .  S
Fe134       O137   2.042       .  S
Fe134       O141   2.066       .  S
Fe134       O145   2.053       .  S
Fe134       O150   2.071       .  S
Fe134       O144   1.949       .  S
Fe135       O153   2.115       .  S
Fe135       O140   2.056       .  S
Fe135       O147   2.052       .  S
Fe135       O136   2.107       .  S
Fe135       O144   1.954       .  S
O136        C143   1.279       .  A
O137        C151   1.272       .  A
O138        C143   1.262       .  A
O139        C142   1.274       .  A
O140        C152   1.262       .  A
O141        C154   1.267       .  A
C142        O147   1.266       .  A
C142        C784   1.486       .  S
C143       C1264   1.482       .  S
O145        C148   1.272       .  A
O146        C148   1.279       .  A
C148       C1133   1.482       .  S
O149        C154   1.264       .  A
O150        C152   1.266       .  A
C151        O153   1.283       .  A
C151        C804   1.473       .  S
C152        C844   1.486       .  S
C154       C1244   1.478       .  S
Fe155       O171   2.062       .  S
Fe155       O161   2.094       .  S
Fe155       O168   2.087       .  S
Fe155       O160   2.030       .  S
Fe155       O166   1.980       .  S
Fe156       O159   2.046       .  S
Fe156       O163   2.067       .  S
Fe156       O167   2.051       .  S
Fe156       O172   2.067       .  S
Fe156       O166   1.971       .  S
Fe157       O175   2.098       .  S
Fe157       O162   2.060       .  S
Fe157       O169   2.046       .  S
Fe157       O158   2.094   1_554  S
Fe157       O166   1.977       .  S
O158        C165   1.277       .  A
O159        C173   1.270       .  A
O160        C165   1.263   1_554  A
O161        C164   1.272       .  A
O162        C174   1.263       .  A
O163        C176   1.268       .  A
C164        O169   1.264       .  A
C164        C764   1.487       .  S
C165        C884   1.481       .  S
O167        C170   1.267       .  A
O168        C170   1.273       .  A
C170        C944   1.476       .  S
O171        C176   1.268       .  A
O172        C174   1.267       .  A
C173        O175   1.278       .  A
C173        C793   1.477       .  S
C174       C1224   1.492       .  S
C176        C864   1.477       .  S
Fe177       O193   2.079       .  S
Fe177       O183   2.039       .  S
Fe177       O190   2.062       .  S
Fe177       O182   2.086       .  S
Fe177       O188   1.955       .  S
Fe178       O181   2.066       .  S
Fe178       O185   2.056       .  S
Fe178       O189   2.060       .  S
Fe178       O194   2.052       .  S
Fe178       O188   1.944       .  S
Fe179       O197   2.053       .  S
Fe179       O184   2.114       .  S
Fe179       O191   2.108       .  S
Fe179       O180   2.050       .  S
Fe179       O188   1.949       .  S
O180        C187   1.266       .  A
O181        C195   1.268       .  A
O182        C187   1.271       .  A
O183        C186   1.268       .  A
O184        C196   1.280       .  A
O185        C198   1.271       .  A
C186        O191   1.278       .  A
C186        C684   1.492       .  S
C187        C824   1.471       .  S
O189        C192   1.267       .  A
O190        C192   1.270       .  A
C192        C704   1.463       .  S
O193        C198   1.271       .  A
O194        C196   1.270       .  A
C195        O197   1.264       .  A
C195        C733   1.477       .  S
C196        C724   1.477       .  S
C198        C653   1.481   1_455  S
Fe199       O215   2.095   1_545  S
Fe199       O205   2.046       .  S
Fe199       O212   2.079       .  S
Fe199       O204   2.096       .  S
Fe199       O210   1.951       .  S
Fe200       O203   2.070       .  S
Fe200       O207   2.044       .  S
Fe200       O211   2.070       .  S
Fe200       O216   2.053       .  S
Fe200       O210   1.945       .  S
Fe201       O219   2.053       .  S
Fe201       O206   2.116       .  S
Fe201       O213   2.101   1_554  S
Fe201       O202   2.042       .  S
Fe201       O210   1.951       .  S
O202        C209   1.268       .  A
O203        C217   1.267       .  A
O204        C209   1.278       .  A
O205        C208   1.266   1_554  A
O206        C218   1.281       .  A
O207        C220   1.270   1_545  A
C208        O213   1.275       .  A
C208        C624   1.483       .  S
C209        C904   1.480       .  S
O211        C214   1.266       .  A
O212        C214   1.268       .  A
C214        C633   1.479   1_545  S
O215        C220   1.280       .  A
O216        C218   1.272       .  A
C217        O219   1.263       .  A
C217        C604   1.474       .  S
C218        C713   1.479       .  S
C220        C584   1.476       .  S
Fe221       O237   2.077       .  S
Fe221       O227   2.088       .  S
Fe221       O234   2.080       .  S
Fe221       O226   2.052   1_556  S
Fe221       O232   1.973       .  S
Fe222       O225   2.050       .  S
Fe222       O229   2.058       .  S
Fe222       O233   2.051       .  S
Fe222       O238   2.059       .  S
Fe222       O232   1.960       .  S
Fe223       O241   2.101   1_554  S
Fe223       O228   2.062       .  S
Fe223       O235   2.052   1_554  S
Fe223       O224   2.097       .  S
Fe223       O232   1.969   1_554  S
O224        C231   1.275       .  A
O225        C239   1.271       .  A
O226        C231   1.268       .  A
O227        C230   1.272       .  A
O228        C240   1.266       .  A
O229        C242   1.267       .  A
C230        O235   1.267       .  A
C230        C753   1.479       .  S
C231        C533   1.475       .  S
O233        C236   1.267       .  A
O234        C236   1.273       .  A
C236        C493   1.480   1_455  S
O237        C242   1.271       .  A
O238        C240   1.264   1_556  A
C239        O241   1.278       .  A
C239        C513   1.487       .  S
C240        C573   1.484       .  S
C242        C553   1.479       .  S
Fe243       O259   2.078       .  S
Fe243       O249   2.097       .  S
Fe243       O256   2.096       .  S
Fe243       O248   2.040       .  S
Fe243       O254   1.951       .  S
Fe244       O247   2.034       .  S
Fe244       O251   2.073       .  S
Fe244       O255   2.037       .  S
Fe244       O260   2.079       .  S
Fe244       O254   1.938       .  S
Fe245       O263   2.125       .  S
Fe245       O250   2.060       .  S
Fe245       O257   2.051       .  S
Fe245       O246   2.116       .  S
Fe245       O254   1.949       .  S
O246        C253   1.281       .  A
O247        C261   1.270       .  A
O248        C253   1.269       .  A
O249        C252   1.274       .  A
O250        C262   1.264       .  A
O251        C264   1.269       .  A
C252        O257   1.268       .  A
C252        C773   1.489       .  S
C253        C644   1.483       .  S
O255        C258   1.267       .  A
O256        C258   1.277       .  A
C258        C744   1.474   1_565  S
O259        C264   1.271       .  A
O260        C262   1.269       .  A
C261        O263   1.283       .  A
C261        C524   1.495       .  S
C262        C484   1.490       .  S
C264        C613   1.478       .  S
Fe265       O281   2.101   1_655  S
Fe265       O271   2.052       .  S
Fe265       O278   2.079       .  S
Fe265       O270   2.104       .  S
Fe265       O276   1.966       .  S
Fe266       O269   2.066       .  S
Fe266       O273   2.049       .  S
Fe266       O277   2.064       .  S
Fe266       O282   2.054       .  S
Fe266       O276   1.955       .  S
Fe267       O285   2.048       .  S
Fe267       O272   2.102       .  S
Fe267       O279   2.089       .  S
Fe267       O268   2.040       .  S
Fe267       O276   1.959       .  S
O268        C275   1.266       .  A
O269        C283   1.264       .  A
O270        C275   1.276       .  A
O271        C274   1.269       .  A
O272        C284   1.279       .  A
O273        C286   1.272   1_655  A
C274        O279   1.275       .  A
C274        C564   1.480       .  S
C275       C1093   1.491       .  S
O277        C280   1.267       .  A
O278        C280   1.270       .  A
C280        C544   1.484   1_655  S
O281        C286   1.277       .  A
O282        C284   1.273       .  A
C283        O285   1.261       .  A
C283        C453   1.479       .  S
C284        C433   1.471       .  S
C286        C473   1.496       .  S
Fe287       O303   2.092       .  S
Fe287       O293   2.044       .  S
Fe287       O300   2.071       .  S
Fe287       O292   2.093       .  S
Fe287       O298   1.968       .  S
Fe288       O291   2.075       .  S
Fe288       O295   2.054       .  S
Fe288       O299   2.069       .  S
Fe288       O304   2.048       .  S
Fe288       O298   1.961       .  S
Fe289       O307   2.047       .  S
Fe289       O294   2.107       .  S
Fe289       O301   2.093   1_554  S
Fe289       O290   2.047       .  S
Fe289       O298   1.966       .  S
O290        C297   1.268       .  A
O291        C305   1.267       .  A
O292        C297   1.276       .  A
O293        C296   1.266   1_554  A
O294        C306   1.279       .  A
O295        C308   1.271       .  A
C296        O301   1.273       .  A
C296        C404   1.483       .  S
C297       C1204   1.484       .  S
O299        C302   1.266       .  A
O300        C302   1.267       .  A
C302        C424   1.479       .  S
O303        C308   1.278       .  A
O304        C306   1.271       .  A
C305        O307   1.260       .  A
C305        C504   1.481       .  S
C306        C444   1.475       .  S
C308        C373   1.484       .  S
Fe309       O325   2.075       .  S
Fe309       O315   2.082       .  S
Fe309       O322   2.095   1_655  S
Fe309       O314   2.045   1_556  S
Fe309       O320   1.963       .  S
Fe310       O313   2.041       .  S
Fe310       O317   2.059       .  S
Fe310       O321   2.040       .  S
Fe310       O326   2.055       .  S
Fe310       O320   1.951       .  S
Fe311       O329   2.102   1_554  S
Fe311       O316   2.069       .  S
Fe311       O323   2.054   1_554  S
Fe311       O312   2.090       .  S
Fe311       O320   1.960   1_554  S
O312        C319   1.276       .  A
O313        C327   1.273       .  A
O314        C319   1.270       .  A
O315        C318   1.271       .  A
O316        C328   1.265       .  A
O317        C330   1.265       .  A
C318        O323   1.267       .  A
C318        C953   1.483       .  S
C319        C693   1.473       .  S
O321        C324   1.268   1_655  A
O322        C324   1.277       .  A
C324        C593   1.475   1_556  S
O325        C330   1.268       .  A
O326        C328   1.261   1_556  A
C327        O329   1.280       .  A
C327        C353   1.492       .  S
C328        C384   1.486       .  S
C330        C673   1.481   1_655  S
Fe331       O347   2.074       .  S
Fe331       O337   2.096       .  S
Fe331       O344   2.100   1_545  S
Fe331       O336   2.048       .  S
Fe331       O342   1.954       .  S
Fe332       O335   2.030       .  S
Fe332       O339   2.067       .  S
Fe332       O343   2.039       .  S
Fe332       O348   2.072       .  S
Fe332       O342   1.947       .  S
Fe333       O351   2.118       .  S
Fe333       O338   2.045       .  S
Fe333       O345   2.041       .  S
Fe333       O334   2.108       .  S
Fe333       O342   1.947       .  S
O334        C341   1.280       .  A
O335        C349   1.270       .  A
O336        C341   1.269       .  A
O337        C340   1.274       .  A
O338        C350   1.259       .  A
O339        C352   1.268       .  A
C340        O345   1.264       .  A
C340       C1004   1.478       .  S
C341        C413   1.481       .  S
O343        C346   1.269   1_545  A
O344        C346   1.278       .  A
C346        C464   1.477       .  S
O347        C352   1.269       .  A
O348        C350   1.266       .  A
C349        O351   1.282       .  A
C349        C364   1.489       .  S
C350        C664   1.483       .  S
C352        C393   1.489       .  S
C353        C354   1.418       .  A
C353        C358   1.409       .  A
C354        C355   1.405       .  A
C354       Br370   1.921       .  S
C355        C356   1.405       .  A
C355        H359   1.083       .  S
C356        C360   1.484       .  S
C356        C357   1.407       .  A
C357        C358   1.392       .  A
C357       Br369   1.923       .  S
C358        H361   1.083       .  S
C360        C362   1.406       .  A
C360        C366   1.408       .  A
C362        C363   1.404       .  A
C362        H367   1.083       .  S
C363        C364   1.414       .  A
C363       Br371   1.919       .  S
C364        C365   1.409       .  A
C365        C366   1.394       .  A
C365        H368   1.084       .  S
C366       Br372   1.923       .  S
C373        C374   1.416       .  A
C373        C378   1.406   1_565  A
C374        C375   1.400   1_565  A
C374       Br390   1.923       .  S
C375        C376   1.402       .  A
C375        H379   1.084       .  S
C376        C380   1.482       .  S
C376        C377   1.409       .  A
C377        C378   1.399       .  A
C377       Br389   1.919       .  S
C378        H381   1.083       .  S
C380        C382   1.399   1_554  A
C380        C386   1.409       .  A
C382        C383   1.398       .  A
C382        H387   1.084       .  S
C383        C384   1.419   1_556  A
C383       Br391   1.924       .  S
C384        C385   1.406       .  A
C385        C386   1.402       .  A
C385        H388   1.083       .  S
C386       Br392   1.919       .  S
C393        C394   1.415   1_545  A
C393        C398   1.409       .  A
C394        C395   1.404       .  A
C394       Br410   1.919       .  S
C395        C396   1.404       .  A
C395        H399   1.083       .  S
C396        C400   1.483       .  S
C396        C397   1.406       .  A
C397        C398   1.396   1_565  A
C397       Br409   1.921       .  S
C398        H401   1.084       .  S
C400        C402   1.406       .  A
C400        C406   1.406       .  A
C402        C403   1.404       .  A
C402        H407   1.084       .  S
C403        C404   1.412       .  A
C403       Br411   1.919       .  S
C404        C405   1.407       .  A
C405        C406   1.397       .  A
C405        H408   1.084       .  S
C406       Br412   1.919       .  S
C413        C414   1.410       .  A
C413        C418   1.406       .  A
C414        C415   1.405       .  A
C414       Br430   1.918       .  S
C415        C416   1.406       .  A
C415        H419   1.083       .  S
C416        C420   1.487   1_545  S
C416        C417   1.407       .  A
C417        C418   1.401       .  A
C417       Br429   1.918   1_545  S
C418        H421   1.084       .  S
C420        C422   1.404       .  A
C420        C426   1.409   1_565  A
C422        C423   1.402       .  A
C422        H427   1.083       .  S
C423        C424   1.409       .  A
C423       Br431   1.918       .  S
C424        C425   1.405       .  A
C425        C426   1.404   1_565  A
C425        H428   1.084   1_565  S
C426       Br432   1.917       .  S
C433        C434   1.407       .  A
C433        C438   1.404       .  A
C434        C435   1.394       .  A
C434       Br450   1.920       .  S
C435        C436   1.403       .  A
C435        H439   1.084       .  S
C436        C440   1.484       .  S
C436        C437   1.411       .  A
C437        C438   1.406       .  A
C437       Br449   1.917       .  S
C438        H441   1.083       .  S
C440        C442   1.404       .  A
C440        C446   1.410       .  A
C442        C443   1.400       .  A
C442        H447   1.083       .  S
C443        C444   1.409       .  A
C443       Br451   1.917       .  S
C444        C445   1.403       .  A
C445        C446   1.400       .  A
C445        H448   1.083       .  S
C446       Br452   1.919       .  S
C453        C454   1.412       .  A
C453        C458   1.407       .  A
C454        C455   1.398       .  A
C454       Br470   1.920       .  S
C455        C456   1.402       .  A
C455        H459   1.084       .  S
C456        C460   1.478       .  S
C456        C457   1.407       .  A
C457        C458   1.397       .  A
C457       Br469   1.920       .  S
C458        H461   1.084       .  S
C460        C462   1.404       .  A
C460        C466   1.406       .  A
C462        C463   1.400       .  A
C462        H467   1.084       .  S
C463        C464   1.411       .  A
C463       Br471   1.921       .  S
C464        C465   1.406       .  A
C465        C466   1.395       .  A
C465        H468   1.084       .  S
C466       Br472   1.920       .  S
C473        C474   1.421       .  A
C473        C478   1.412       .  A
C474        C475   1.402       .  A
C474       Br490   1.922       .  S
C475        C476   1.400       .  A
C475        H479   1.084       .  S
C476        C480   1.478       .  S
C476        C477   1.403       .  A
C477        C478   1.398       .  A
C477       Br489   1.919       .  S
C478        H481   1.083       .  S
C480        C482   1.401       .  A
C480        C486   1.404       .  A
C482        C483   1.403       .  A
C482        H487   1.083       .  S
C483        C484   1.418       .  A
C483       Br491   1.921       .  S
C484        C485   1.409       .  A
C485        C486   1.398       .  A
C485        H488   1.083       .  S
C486       Br492   1.919       .  S
C493        C494   1.415       .  A
C493        C498   1.407   1_556  A
C494        C495   1.398       .  A
C494       Br510   1.921   1_655  S
C495        C496   1.399   1_556  A
C495        H499   1.084       .  S
C496        C500   1.474       .  S
C496        C497   1.406       .  A
C497        C498   1.397       .  A
C497       Br509   1.919       .  S
C498        H501   1.083       .  S
C500        C502   1.399       .  A
C500        C506   1.405       .  A
C502        C503   1.396       .  A
C502        H507   1.084   1_554  S
C503        C504   1.417       .  A
C503       Br511   1.923       .  S
C504        C505   1.407       .  A
C505        C506   1.399       .  A
C505        H508   1.083       .  S
C506       Br512   1.918       .  S
C513        C514   1.415       .  A
C513        C518   1.408       .  A
C514        C515   1.404       .  A
C514       Br530   1.920       .  S
C515        C516   1.404       .  A
C515        H519   1.084       .  S
C516        C520   1.482       .  S
C516        C517   1.406       .  A
C517        C518   1.399       .  A
C517       Br529   1.919       .  S
C518        H521   1.084       .  S
C520        C522   1.406       .  A
C520        C526   1.404       .  A
C522        C523   1.411       .  A
C522        H527   1.083       .  S
C523        C524   1.417       .  A
C523       Br531   1.918       .  S
C524        C525   1.410       .  A
C525        C526   1.390       .  A
C525        H528   1.083       .  S
C526       Br532   1.923       .  S
C533        C534   1.408       .  A
C533        C538   1.405       .  A
C534        C535   1.397       .  A
C534       Br550   1.920       .  S
C535        C536   1.403       .  A
C535        H539   1.083       .  S
C536        C540   1.486       .  S
C536        C537   1.411       .  A
C537        C538   1.407       .  A
C537       Br549   1.917       .  S
C538        H541   1.083       .  S
C540        C542   1.408       .  A
C540        C546   1.406       .  A
C542        C543   1.407   1_455  A
C542        H547   1.083       .  S
C543        C544   1.410   1_655  A
C543       Br551   1.917       .  S
C544        C545   1.407       .  A
C545        C546   1.396       .  A
C545        H548   1.084       .  S
C546       Br552   1.920       .  S
C553        C554   1.412       .  A
C553        C558   1.405       .  A
C554        C555   1.405   1_455  A
C554       Br570   1.919   1_455  S
C555        C556   1.403   1_655  A
C555        H559   1.083       .  S
C556        C560   1.479   1_455  S
C556        C557   1.406       .  A
C557        C558   1.396       .  A
C557       Br569   1.920       .  S
C558        H561   1.084       .  S
C560        C562   1.403       .  A
C560        C566   1.405       .  A
C562        C563   1.403       .  A
C562        H567   1.084       .  S
C563        C564   1.412       .  A
C563       Br571   1.920       .  S
C564        C565   1.406       .  A
C565        C566   1.398       .  A
C565        H568   1.084       .  S
C566       Br572   1.918   1_655  S
C573        C574   1.417       .  A
C573        C578   1.408       .  A
C574        C575   1.398       .  A
C574       Br590   1.921   1_554  S
C575        C576   1.399       .  A
C575        H579   1.084       .  S
C576        C580   1.473       .  S
C576        C577   1.405       .  A
C577        C578   1.398       .  A
C577       Br589   1.919       .  S
C578        H581   1.083       .  S
C580        C582   1.398       .  A
C580        C586   1.407       .  A
C582        C583   1.397       .  A
C582        H587   1.084       .  S
C583        C584   1.415       .  A
C583       Br591   1.922       .  S
C584        C585   1.405       .  A
C585        C586   1.398       .  A
C585        H588   1.084       .  S
C586       Br592   1.919   1_554  S
C593        C594   1.414       .  A
C593        C598   1.405   1_554  A
C594        C595   1.397       .  A
C594       Br610   1.922   1_455  S
C595        C596   1.400       .  A
C595        H599   1.084       .  S
C596        C600   1.471       .  S
C596        C597   1.405       .  A
C597        C598   1.396   1_554  A
C597       Br609   1.919   1_554  S
C598        H601   1.084       .  S
C600        C602   1.402       .  A
C600        C606   1.404       .  A
C602        C603   1.399       .  A
C602        H607   1.084   1_554  S
C603        C604   1.411       .  A
C603       Br611   1.920   1_554  S
C604        C605   1.406       .  A
C605        C606   1.394       .  A
C605        H608   1.084       .  S
C606       Br612   1.919       .  S
C613        C614   1.407       .  A
C613        C618   1.406       .  A
C614        C615   1.405       .  A
C614       Br630   1.917       .  S
C615        C616   1.407   1_565  A
C615        H619   1.083       .  S
C616        C620   1.484       .  S
C616        C617   1.406       .  A
C617        C618   1.399   1_545  A
C617       Br629   1.918       .  S
C618        H621   1.084   1_565  S
C620        C622   1.406       .  A
C620        C626   1.407   1_545  A
C622        C623   1.408       .  A
C622        H627   1.083       .  S
C623        C624   1.412       .  A
C623       Br631   1.919       .  S
C624        C625   1.405       .  A
C625        C626   1.397   1_545  A
C625        H628   1.084   1_545  S
C626       Br632   1.920       .  S
C633        C634   1.412       .  A
C633        C638   1.403       .  A
C634        C635   1.397       .  A
C634       Br650   1.914       .  S
C635        C636   1.397       .  A
C635        H639   1.084       .  S
C636        C640   1.482       .  S
C636        C637   1.412       .  A
C637        C638   1.406       .  A
C637       Br649   1.917       .  S
C638        H641   1.083   1_565  S
C640        C642   1.405       .  A
C640        C646   1.406       .  A
C642        C643   1.408       .  A
C642        H647   1.083       .  S
C643        C644   1.413       .  A
C643       Br651   1.918       .  S
C644        C645   1.405       .  A
C645        C646   1.395       .  A
C645        H648   1.084       .  S
C646       Br652   1.921       .  S
C653        C654   1.418       .  A
C653        C658   1.407       .  A
C654        C655   1.397       .  A
C654       Br670   1.922       .  S
C655        C656   1.399       .  A
C655        H659   1.084       .  S
C656        C660   1.472       .  S
C656        C657   1.404       .  A
C657        C658   1.397       .  A
C657       Br669   1.919       .  S
C658        H661   1.083   1_655  S
C660        C662   1.398       .  A
C660        C666   1.405       .  A
C662        C663   1.398       .  A
C662        H667   1.084       .  S
C663        C664   1.419       .  A
C663       Br671   1.923       .  S
C664        C665   1.407       .  A
C665        C666   1.395       .  A
C665        H668   1.083       .  S
C666       Br672   1.920       .  S
C673        C674   1.410   1_455  A
C673        C678   1.407       .  A
C674        C675   1.405   1_655  A
C674       Br690   1.918       .  S
C675        C676   1.407       .  A
C675        H679   1.083       .  S
C676        C680   1.481       .  S
C676        C677   1.405       .  A
C677        C678   1.395       .  A
C677       Br689   1.920       .  S
C678        H681   1.084       .  S
C680        C682   1.404       .  A
C680        C686   1.404       .  A
C682        C683   1.405       .  A
C682        H687   1.083       .  S
C683        C684   1.416       .  A
C683       Br691   1.919       .  S
C684        C685   1.410       .  A
C685        C686   1.395       .  A
C685        H688   1.081       .  S
C686       Br692   1.921   1_455  S
C693        C694   1.409       .  A
C693        C698   1.404       .  A
C694        C695   1.403       .  A
C694       Br710   1.918       .  S
C695        C696   1.405       .  A
C695        H699   1.083       .  S
C696        C700   1.473       .  S
C696        C697   1.403       .  A
C697        C698   1.392       .  A
C697       Br709   1.920   1_655  S
C698        H701   1.081       .  S
C700        C702   1.403   1_655  A
C700        C706   1.405       .  A
C702        C703   1.395       .  A
C702        H707   1.084       .  S
C703        C704   1.406       .  A
C703       Br711   1.918       .  S
C704        C705   1.404       .  A
C705        C706   1.399   1_455  A
C705        H708   1.084   1_455  S
C706       Br712   1.917       .  S
C713        C714   1.408       .  A
C713        C718   1.403       .  A
C714        C715   1.403       .  A
C714       Br730   1.918       .  S
C715        C716   1.407       .  A
C715        H719   1.083       .  S
C716        C720   1.495       .  S
C716        C717   1.415       .  A
C717        C718   1.402       .  A
C717       Br729   1.921       .  S
C718        H721   1.084       .  S
C720        C722   1.407       .  A
C720        C726   1.415       .  A
C722        C723   1.404       .  A
C722        H727   1.083       .  S
C723        C724   1.407       .  A
C723       Br731   1.913       .  S
C724        C725   1.401       .  A
C725        C726   1.400       .  A
C725        H728   1.083       .  S
C726       Br732   1.921       .  S
C733        C734   1.413       .  A
C733        C738   1.406       .  A
C734        C735   1.401       .  A
C734       Br750   1.921       .  S
C735        C736   1.403       .  A
C735        H739   1.084       .  S
C736        C740   1.474       .  S
C736        C737   1.405       .  A
C737        C738   1.392       .  A
C737       Br749   1.921       .  S
C738        H741   1.083       .  S
C740        C742   1.401       .  A
C740        C746   1.407       .  A
C742        C743   1.395   1_545  A
C742        H747   1.084       .  S
C743        C744   1.413   1_565  A
C743       Br751   1.922       .  S
C744        C745   1.405       .  A
C745        C746   1.397       .  A
C745        H748   1.084       .  S
C746       Br752   1.919       .  S
C753        C754   1.413   1_556  A
C753        C758   1.404       .  A
C754        C755   1.403       .  A
C754       Br770   1.919       .  S
C755        C756   1.402       .  A
C755        H759   1.083       .  S
C756        C760   1.482       .  S
C756        C757   1.409   1_554  A
C757        C758   1.400       .  A
C757       Br769   1.919       .  S
C758        H761   1.084       .  S
C760        C762   1.402       .  A
C760        C766   1.407       .  A
C762        C763   1.406       .  A
C762        H767   1.083       .  S
C763        C764   1.415       .  A
C763       Br771   1.913       .  S
C764        C765   1.405       .  A
C765        C766   1.397       .  A
C765        H768   1.081       .  S
C766       Br772   1.920       .  S
C773        C774   1.419       .  A
C773        C778   1.406       .  A
C774        C775   1.407       .  A
C774       Br790   1.921       .  S
C775        C776   1.402       .  A
C775        H779   1.083       .  S
C776        C780   1.484       .  S
C776        C777   1.407       .  A
C777        C778   1.398       .  A
C777       Br789   1.919       .  S
C778        H781   1.084       .  S
C780        C782   1.401       .  A
C780        C786   1.408       .  A
C782        C783   1.404       .  A
C782        H787   1.084       .  S
C783        C784   1.414       .  A
C783       Br791   1.913       .  S
C784        C785   1.406       .  A
C785        C786   1.401       .  A
C785        H788   1.084       .  S
C786       Br792   1.919       .  S
C793        C794   1.410       .  A
C793        C798   1.402       .  A
C794        C795   1.407       .  A
C794       Br810   1.914       .  S
C795        C796   1.405       .  A
C795        H799   1.083       .  S
C796        C800   1.479       .  S
C796        C797   1.409       .  A
C797        C798   1.392       .  A
C797       Br809   1.923       .  S
C798        H801   1.084       .  S
C800        C802   1.403       .  A
C800        C806   1.407       .  A
C802        C803   1.401       .  A
C802        H807   1.083       .  S
C803        C804   1.409       .  A
C803       Br811   1.919       .  S
C804        C805   1.404       .  A
C805        C806   1.399       .  A
C805        H808   1.084       .  S
C806       Br812   1.918       .  S
C813        C814   1.412       .  A
C813        C818   1.404       .  A
C814        C815   1.402       .  A
C814       Br830   1.917       .  S
C815        C816   1.401       .  A
C815        H819   1.083       .  S
C816        C820   1.475       .  S
C816        C817   1.406       .  A
C817        C818   1.396       .  A
C817       Br829   1.920       .  S
C818        H821   1.084       .  S
C820        C822   1.402       .  A
C820        C826   1.406       .  A
C822        C823   1.396       .  A
C822        H827   1.084       .  S
C823        C824   1.406       .  A
C823       Br831   1.913       .  S
C824        C825   1.406       .  A
C825        C826   1.401       .  A
C825        H828   1.084       .  S
C826       Br832   1.917       .  S
C833        C834   1.418       .  A
C833        C838   1.408       .  A
C834        C835   1.402       .  A
C834       Br850   1.923       .  S
C835        C836   1.402       .  A
C835        H839   1.084       .  S
C836        C840   1.474       .  S
C836        C837   1.402       .  A
C837        C838   1.395       .  A
C837       Br849   1.919       .  S
C838        H841   1.083       .  S
C840        C842   1.399       .  A
C840        C846   1.404       .  A
C842        C843   1.401       .  A
C842        H847   1.084       .  S
C843        C844   1.419       .  A
C843       Br851   1.922       .  S
C844        C845   1.407       .  A
C845        C846   1.397       .  A
C845        H848   1.083       .  S
C846       Br852   1.919       .  S
C853        C854   1.415       .  A
C853        C858   1.406       .  A
C854        C855   1.398       .  A
C854       Br870   1.917       .  S
C855        C856   1.398       .  A
C855        H859   1.084       .  S
C856        C860   1.478       .  S
C856        C857   1.407       .  A
C857        C858   1.401       .  A
C857       Br869   1.918       .  S
C858        H861   1.083       .  S
C860        C862   1.403       .  A
C860        C866   1.406       .  A
C862        C863   1.401       .  A
C862        H867   1.084       .  S
C863        C864   1.411       .  A
C863       Br871   1.920       .  S
C864        C865   1.405       .  A
C865        C866   1.399       .  A
C865        H868   1.084       .  S
C866       Br872   1.918       .  S
C873        C874   1.420       .  A
C873        C878   1.408       .  A
C874        C875   1.398       .  A
C874       Br890   1.923       .  S
C875        C876   1.397       .  A
C875        H879   1.084       .  S
C876        C880   1.467       .  S
C876        C877   1.403       .  A
C877        C878   1.393       .  A
C877       Br889   1.920       .  S
C878        H881   1.083       .  S
C880        C882   1.392       .  A
C880        C886   1.406       .  A
C882        C883   1.390       .  A
C882        H887   1.084       .  S
C883        C884   1.422       .  A
C883       Br891   1.923       .  S
C884        C885   1.407       .  A
C885        C886   1.401       .  A
C885        H888   1.083       .  S
C886       Br892   1.917       .  S
C893        C894   1.414   1_556  A
C893        C898   1.404       .  A
C894        C895   1.402       .  A
C894       Br910   1.920       .  S
C895        C896   1.401       .  A
C895        H899   1.083       .  S
C896        C900   1.476       .  S
C896        C897   1.407   1_554  A
C897        C898   1.397       .  A
C897       Br909   1.920       .  S
C898        H901   1.084       .  S
C900        C902   1.401       .  A
C900        C906   1.405       .  A
C902        C903   1.397       .  A
C902        H907   1.084       .  S
C903        C904   1.414       .  A
C903       Br911   1.923       .  S
C904        C905   1.407       .  A
C905        C906   1.401       .  A
C905        H908   1.083       .  S
C906       Br912   1.916   1_554  S
C913        C914   1.410       .  A
C913        C918   1.406       .  A
C914        C915   1.392       .  A
C914       Br930   1.920       .  S
C915        C916   1.401       .  A
C915        H919   1.084       .  S
C916        C920   1.481       .  S
C916        C917   1.409       .  A
C917        C918   1.406       .  A
C917       Br929   1.916       .  S
C918        H921   1.083       .  S
C920        C922   1.404       .  A
C920        C926   1.408       .  A
C922        C923   1.401       .  A
C922        H927   1.083       .  S
C923        C924   1.410       .  A
C923       Br931   1.920       .  S
C924        C925   1.403       .  A
C925        C926   1.398       .  A
C925        H928   1.084       .  S
C926       Br932   1.919       .  S
C933        C934   1.419       .  A
C933        C938   1.409   1_554  A
C934        C935   1.400       .  A
C934       Br950   1.922       .  S
C935        C936   1.400       .  A
C935        H939   1.084       .  S
C936        C940   1.480       .  S
C936        C937   1.406   1_554  A
C937        C938   1.399       .  A
C937       Br949   1.919       .  S
C938        H941   1.083       .  S
C940        C942   1.401       .  A
C940        C946   1.410       .  A
C942        C943   1.399       .  A
C942        H947   1.084       .  S
C943        C944   1.411       .  A
C943       Br951   1.920       .  S
C944        C945   1.404       .  A
C945        C946   1.402       .  A
C945        H948   1.084       .  S
C946       Br952   1.919   1_554  S
C953        C954   1.416   1_556  A
C953        C958   1.405       .  A
C954        C955   1.403       .  A
C954       Br970   1.917       .  S
C955        C956   1.400       .  A
C955        H959   1.083       .  S
C956        C960   1.480       .  S
C956        C957   1.407   1_554  A
C957        C958   1.398       .  A
C957       Br969   1.919       .  S
C958        H961   1.084       .  S
C960        C962   1.401       .  A
C960        C966   1.408       .  A
C962        C963   1.403       .  A
C962        H967   1.083   1_554  S
C963        C964   1.413       .  A
C963       Br971   1.919       .  S
C964        C965   1.404       .  A
C965        C966   1.399       .  A
C965        H968   1.084       .  S
C966       Br972   1.920       .  S
C973        C974   1.420   1_554  A
C973        C978   1.410       .  A
C974        C975   1.400       .  A
C974       Br990   1.922       .  S
C975        C976   1.399   1_556  A
C975        H979   1.084       .  S
C976        C980   1.470   1_554  S
C976        C977   1.402       .  A
C977        C978   1.394       .  A
C977       Br989   1.919       .  S
C978        H981   1.083       .  S
C980        C982   1.401   1_556  A
C980        C986   1.403       .  A
C982        C983   1.399       .  A
C982        H987   1.084       .  S
C983        C984   1.413   1_554  A
C983       Br991   1.922       .  S
C984        C985   1.406       .  A
C985        C986   1.395       .  A
C985        H988   1.083       .  S
C986       Br992   1.918       .  S
C993        C994   1.413       .  A
C993        C998   1.407       .  A
C994        C995   1.398       .  A
C994      Br1010   1.922       .  S
C995        C996   1.402       .  A
C995        H999   1.084       .  S
C996       C1000   1.482       .  S
C996        C997   1.407       .  A
C997        C998   1.404       .  A
C997      Br1009   1.917       .  S
C998       H1001   1.084       .  S
C1000      C1002   1.403       .  A
C1000      C1006   1.407       .  A
C1002      C1003   1.401       .  A
C1002      H1007   1.083       .  S
C1003      C1004   1.412       .  A
C1003     Br1011   1.921       .  S
C1004      C1005   1.405       .  A
C1005      C1006   1.402       .  A
C1005      H1008   1.083       .  S
C1006     Br1012   1.917       .  S
C1013      C1014   1.418       .  A
C1013      C1018   1.408       .  A
C1014      C1015   1.399       .  A
C1014     Br1030   1.922       .  S
C1015      C1016   1.398       .  A
C1015      H1019   1.080       .  S
C1016      C1020   1.474       .  S
C1016      C1017   1.405       .  A
C1017      C1018   1.400       .  A
C1017     Br1029   1.919       .  S
C1018      H1021   1.080       .  S
C1020      C1022   1.401       .  A
C1020      C1026   1.405       .  A
C1022      C1023   1.399       .  A
C1022      H1027   1.084       .  S
C1023      C1024   1.413       .  A
C1023     Br1031   1.921       .  S
C1024      C1025   1.407       .  A
C1025      C1026   1.398       .  A
C1025      H1028   1.084       .  S
C1026     Br1032   1.918       .  S
C1033      C1034   1.407       .  A
C1033      C1038   1.403       .  A
C1034      C1035   1.394       .  A
C1034     Br1050   1.922       .  S
C1035      C1036   1.403       .  A
C1035      H1039   1.084       .  S
C1036      C1040   1.479       .  S
C1036      C1037   1.409       .  A
C1037      C1038   1.403       .  A
C1037     Br1049   1.917       .  S
C1038      H1041   1.083       .  S
C1040      C1042   1.408       .  A
C1040      C1046   1.405       .  A
C1042      C1043   1.406       .  A
C1042      H1047   1.083       .  S
C1043      C1044   1.408       .  A
C1043     Br1051   1.917       .  S
C1044      C1045   1.405       .  A
C1045      C1046   1.392       .  A
C1045      H1048   1.084       .  S
C1046     Br1052   1.921       .  S
C1053      C1054   1.411       .  A
C1053      C1058   1.408       .  A
C1054      C1055   1.400       .  A
C1054     Br1070   1.918       .  S
C1055      C1056   1.403       .  A
C1055      H1059   1.084       .  S
C1056      C1060   1.479       .  S
C1056      C1057   1.405       .  A
C1057      C1058   1.399       .  A
C1057     Br1069   1.918       .  S
C1058      H1061   1.084       .  S
C1060      C1062   1.403       .  A
C1060      C1066   1.404       .  A
C1062      C1063   1.405       .  A
C1062      H1067   1.083       .  S
C1063      C1064   1.417       .  A
C1063     Br1071   1.920       .  S
C1064      C1065   1.408       .  A
C1065      C1066   1.394       .  A
C1065      H1068   1.084       .  S
C1066     Br1072   1.921       .  S
C1073      C1074   1.406       .  A
C1073      C1078   1.404       .  A
C1074      C1075   1.390       .  A
C1074     Br1090   1.919       .  S
C1075      C1076   1.401       .  A
C1075      H1079   1.084       .  S
C1076      C1080   1.481       .  S
C1076      C1077   1.411       .  A
C1077      C1078   1.406       .  A
C1077     Br1089   1.917       .  S
C1078      H1081   1.083       .  S
C1080      C1082   1.404       .  A
C1080      C1086   1.413       .  A
C1082      C1083   1.398       .  A
C1082      H1087   1.083       .  S
C1083      C1084   1.409       .  A
C1083     Br1091   1.920       .  S
C1084      C1085   1.402       .  A
C1085      C1086   1.401       .  A
C1085      H1088   1.084       .  S
C1086     Br1092   1.921       .  S
C1093      C1094   1.417       .  A
C1093      C1098   1.408       .  A
C1094      C1095   1.408       .  A
C1094     Br1110   1.919       .  S
C1095      C1096   1.404       .  A
C1095      H1099   1.083       .  S
C1096      C1100   1.484       .  S
C1096      C1097   1.406       .  A
C1097      C1098   1.397       .  A
C1097     Br1109   1.921       .  S
C1098      H1101   1.084       .  S
C1100      C1102   1.405       .  A
C1100      C1106   1.407       .  A
C1102      C1103   1.402       .  A
C1102      H1107   1.083       .  S
C1103      C1104   1.409       .  A
C1103     Br1111   1.919       .  S
C1104      C1105   1.405       .  A
C1105      C1106   1.403       .  A
C1105      H1108   1.083       .  S
C1106     Br1112   1.917       .  S
C1113      C1114   1.412       .  A
C1113      C1118   1.403       .  A
C1114      C1115   1.397       .  A
C1114     Br1130   1.921       .  S
C1115      C1116   1.400       .  A
C1115      H1119   1.083       .  S
C1116      C1120   1.471       .  S
C1116      C1117   1.406       .  A
C1117      C1118   1.396       .  A
C1117     Br1129   1.919       .  S
C1118      H1121   1.083       .  S
C1120      C1122   1.398       .  A
C1120      C1126   1.402       .  A
C1122      C1123   1.397       .  A
C1122      H1127   1.084       .  S
C1123      C1124   1.420       .  A
C1123     Br1131   1.923       .  S
C1124      C1125   1.411       .  A
C1125      C1126   1.397       .  A
C1125      H1128   1.083       .  S
C1126     Br1132   1.919       .  S
C1133      C1134   1.415       .  A
C1133      C1138   1.406       .  A
C1134      C1135   1.401       .  A
C1134     Br1150   1.920       .  S
C1135      C1136   1.400       .  A
C1135      H1139   1.084       .  S
C1136      C1140   1.478       .  S
C1136      C1137   1.407       .  A
C1137      C1138   1.399       .  A
C1137     Br1149   1.919       .  S
C1138      H1141   1.084       .  S
C1140      C1142   1.400       .  A
C1140      C1146   1.403       .  A
C1142      C1143   1.402       .  A
C1142      H1147   1.084       .  S
C1143      C1144   1.421       .  A
C1143     Br1151   1.923       .  S
C1144      C1145   1.411       .  A
C1145      C1146   1.398       .  A
C1145      H1148   1.083       .  S
C1146     Br1152   1.919       .  S
C1153      C1154   1.410       .  A
C1153      C1158   1.406       .  A
C1154      C1155   1.404       .  A
C1154     Br1170   1.918       .  S
C1155      C1156   1.406       .  A
C1155      H1159   1.083       .  S
C1156      C1160   1.481       .  S
C1156      C1157   1.407       .  A
C1157      C1158   1.394       .  A
C1157     Br1169   1.920       .  S
C1158      H1161   1.084       .  S
C1160      C1162   1.408       .  A
C1160      C1166   1.407       .  A
C1162      C1163   1.402       .  A
C1162      H1167   1.083       .  S
C1163      C1164   1.405       .  A
C1163     Br1171   1.917       .  S
C1164      C1165   1.404       .  A
C1165      C1166   1.396       .  A
C1165      H1168   1.084       .  S
C1166     Br1172   1.920       .  S
C1173      C1174   1.414       .  A
C1173      C1178   1.405       .  A
C1174      C1175   1.397       .  A
C1174     Br1190   1.923       .  S
C1175      C1176   1.400       .  A
C1175      H1179   1.083       .  S
C1176      C1180   1.471       .  S
C1176      C1177   1.404       .  A
C1177      C1178   1.398       .  A
C1177     Br1189   1.918       .  S
C1178      H1181   1.083       .  S
C1180      C1182   1.402       .  A
C1180      C1186   1.403       .  A
C1182      C1183   1.399       .  A
C1182      H1187   1.084       .  S
C1183      C1184   1.410       .  A
C1183     Br1191   1.919       .  S
C1184      C1185   1.406       .  A
C1185      C1186   1.396       .  A
C1185      H1188   1.083       .  S
C1186     Br1192   1.918       .  S
C1193      C1194   1.407       .  A
C1193      C1198   1.405   1_556  A
C1194      C1195   1.401       .  A
C1194     Br1210   1.917       .  S
C1195      C1196   1.405   1_556  A
C1195      H1199   1.083       .  S
C1196      C1200   1.482       .  S
C1196      C1197   1.408       .  A
C1197      C1198   1.401       .  A
C1197     Br1209   1.919       .  S
C1198      H1201   1.084       .  S
C1200      C1202   1.402       .  A
C1200      C1206   1.409       .  A
C1202      C1203   1.404       .  A
C1202      H1207   1.083       .  S
C1203      C1204   1.415       .  A
C1203     Br1211   1.920       .  S
C1204      C1205   1.406       .  A
C1205      C1206   1.398       .  A
C1205      H1208   1.084       .  S
C1206     Br1212   1.921       .  S
C1213      C1214   1.412   1_556  A
C1213      C1218   1.405       .  A
C1214      C1215   1.398       .  A
C1214     Br1230   1.920       .  S
C1215      C1216   1.404   1_554  A
C1215      H1219   1.084       .  S
C1216      C1220   1.486       .  S
C1216      C1217   1.410       .  A
C1217      C1218   1.402       .  A
C1217     Br1229   1.918       .  S
C1218      H1221   1.084       .  S
C1220      C1222   1.404       .  A
C1220      C1226   1.409   1_556  A
C1222      C1223   1.404       .  A
C1222      H1227   1.084       .  S
C1223      C1224   1.418   1_556  A
C1223     Br1231   1.922       .  S
C1224      C1225   1.408       .  A
C1225      C1226   1.397       .  A
C1225      H1228   1.083       .  S
C1226     Br1232   1.921       .  S
C1233      C1234   1.414       .  A
C1233      C1238   1.409       .  A
C1234      C1235   1.402       .  A
C1234     Br1250   1.918       .  S
C1235      C1236   1.402       .  A
C1235      H1239   1.084       .  S
C1236      C1240   1.469       .  S
C1236      C1237   1.400       .  A
C1237      C1238   1.390       .  A
C1237     Br1249   1.920       .  S
C1238      H1241   1.084       .  S
C1240      C1242   1.399       .  A
C1240      C1246   1.404       .  A
C1242      C1243   1.400       .  A
C1242      H1247   1.084       .  S
C1243      C1244   1.416       .  A
C1243     Br1251   1.921       .  S
C1244      C1245   1.406       .  A
C1245      C1246   1.393       .  A
C1245      H1248   1.084       .  S
C1246     Br1252   1.921       .  S
C1253      C1254   1.408       .  A
C1253      C1258   1.402       .  A
C1254      C1255   1.399       .  A
C1254     Br1270   1.919       .  S
C1255      C1256   1.403       .  A
C1255      H1259   1.083       .  S
C1256      C1260   1.478       .  S
C1256      C1257   1.411       .  A
C1257      C1258   1.394       .  A
C1257     Br1269   1.922       .  S
C1258      H1261   1.084       .  S
C1260      C1262   1.395       .  A
C1260      C1266   1.411       .  A
C1262      C1263   1.391       .  A
C1262      H1267   1.084       .  S
C1263      C1264   1.421       .  A
C1263     Br1271   1.924       .  S
C1264      C1265   1.406       .  A
C1265      C1266   1.403       .  A
C1265      H1268   1.083       .  S
C1266     Br1272   1.919       .  S
C1273      C1274   1.405       .  A
C1273      C1278   1.402       .  A
C1274      C1275   1.392       .  A
C1274     Br1290   1.921       .  S
C1275      C1276   1.405       .  A
C1275      H1279   1.083       .  S
C1276      C1280   1.486       .  S
C1276      C1277   1.413       .  A
C1277      C1278   1.405       .  A
C1277     Br1289   1.918       .  S
C1278      H1281   1.083       .  S
C1280      C1282   1.406       .  A
C1280      C1286   1.411       .  A
C1282      C1283   1.400       .  A
C1282      H1287   1.083       .  S
C1283      C1284   1.408       .  A
C1283     Br1291   1.916       .  S
C1284      C1285   1.403       .  A
C1285      C1286   1.397       .  A
C1285      H1288   1.084       .  S
C1286     Br1292   1.921       .  S
C1293      C1294   1.408       .  A
C1293      C1298   1.403   1_554  A
C1294      C1295   1.402       .  A
C1294     Br1310   1.916       .  S
C1295      C1296   1.404       .  A
C1295      H1299   1.083       .  S
C1296      C1300   1.475       .  S
C1296      C1297   1.405   1_554  A
C1297      C1298   1.396       .  A
C1297     Br1309   1.920       .  S
C1298      H1301   1.082       .  S
C1300      C1302   1.398       .  A
C1300      C1306   1.405       .  A
C1302      C1303   1.398       .  A
C1302      H1307   1.084       .  S
C1303      C1304   1.419       .  A
C1303     Br1311   1.924       .  S
C1304      C1305   1.408       .  A
C1305      C1306   1.400       .  A
C1305      H1308   1.083       .  S
C1306     Br1312   1.918       .  S
