geometry optimzed in LAMMPS
_audit_creation_date              2020-12-01 
_audit_creation_method            'lammps2cif' 
_symmetry_space_group_name_H-M    'P1' 
_symmetry_Int_Tables_number       1 
_symmetry_cell_setting            triclinic 
loop_ 
_symmetry_equiv_pos_as_xyz 
  x,y,z 
_cell_length_a                    59.76832583 
_cell_length_b                    59.771175954884576 
_cell_length_c                    43.55013025509721 
_cell_angle_alpha                 89.97244065435721 
_cell_angle_beta                  89.72751100661988 
_cell_angle_gamma                 119.9853771146572 
loop_ 
_atom_site_label 
_atom_site_type_symbol 
_atom_site_fract_x 
_atom_site_fract_y 
_atom_site_fract_z 
_atom_site_charge 
O1          O  0.11490875  0.20881534  0.33729896    -0.82000
C2          C  0.13960850  0.23842504  0.21410332     0.97400
O3          O  0.12867240  0.24692235  0.23183506    -0.71100
O4          O  0.08698324  0.21197584  0.25948815    -0.74700
Al5        Al  0.11812701  0.23970851  0.27435745     1.49000
C6          C  0.07308399  0.19013794  0.27136657     0.92600
O7          O  0.11887173  0.17047377  0.26997938    -0.80900
O8          O  0.17882864  0.23384341  0.30579734    -0.74500
Al9        Al  0.11722334  0.19146856  0.30252793     1.90100
O10         O  0.15968752  0.19768374  0.25994426    -0.73600
O11         O  0.17796063  0.26810923  0.26662065    -0.73400
O12         O  0.15310107  0.22932785  0.22468122    -0.79100
O13         O  0.14637455  0.27034368  0.28846302    -0.77300
O14         O  0.13314145  0.22078341  0.28058912    -1.13400
O15         O  0.10524423  0.23617116  0.31571500    -0.72600
C16         C  0.10842443  0.22577912  0.33934040     0.98100
C17         C  0.14031853  0.17519365  0.25852670     0.94500
Al18       Al  0.16472164  0.23134710  0.26549546     1.55600
O19         O  0.08240379  0.18109147  0.29031889    -0.77200
C20         C  0.16947390  0.28108109  0.27983954     0.98700
C21         C  0.16979306  0.21517466  0.32469986     0.93600
O22         O  0.14787550  0.19545783  0.32062786    -0.82500
O23         O  0.23311702  0.46817835  0.25098239    -0.82000
C24         C  0.22559740  0.43013346  0.36590136     0.97400
O25         O  0.21194459  0.43500858  0.34808997    -0.71100
O26         O  0.20547772  0.46059532  0.30279591    -0.74700
Al27       Al  0.21107235  0.43178223  0.30489624     1.49000
C28         C  0.22010435  0.48458273  0.30660756     0.92600
O29         O  0.29053039  0.49762244  0.30443364    -0.80900
O30         O  0.28978872  0.44973239  0.28698898    -0.74500
Al31       Al  0.25987566  0.47959784  0.28046232     1.90100
O32         O  0.28488965  0.47041803  0.34108757    -0.73600
O33         O  0.24747121  0.40612767  0.30016853    -0.73400
O34         O  0.24375823  0.42697992  0.35582719    -0.79100
O35         O  0.20819625  0.39860861  0.30798312    -0.77300
O36         O  0.24539134  0.45022354  0.30181290    -1.13400
O37         O  0.20767246  0.42710812  0.26167036    -0.72600
C38         C  0.21666712  0.44566041  0.24269304     0.98100
C39         C  0.29791323  0.49251079  0.32912040     0.94500
Al40       Al  0.26477635  0.43914744  0.31954060     1.55600
O41         O  0.24436207  0.49450700  0.30542518    -0.77200
C42         C  0.22360046  0.39054018  0.30222398     0.98700
C43         C  0.29078756  0.45882334  0.26051572     0.93600
O44         O  0.27638549  0.46774499  0.25318948    -0.82500
O45         O  0.54142800  0.41579764  0.07806669    -0.82000
C46         C  0.52064284  0.42861734  0.19985415     0.97400
O47         O  0.53215746  0.44712120  0.18108866    -0.71100
O48         O  0.57280826  0.44939894  0.15515396    -0.74700
Al49       Al  0.54255890  0.44745169  0.13908683     1.49000
C50         C  0.58633092  0.44143316  0.14222976     0.92600
O51         O  0.53977085  0.37734932  0.14839115    -0.80900
O52         O  0.47898514  0.37923684  0.11278853    -0.74500
Al53       Al  0.54044841  0.39789021  0.11397911     1.90100
O54         O  0.49959688  0.36548571  0.16072459    -0.73600
O55         O  0.48281007  0.41803852  0.14627709    -0.73400
O56         O  0.50671825  0.40575519  0.19076483    -0.79100
O57         O  0.51508128  0.45076546  0.12355277    -0.77300
O58         O  0.52598742  0.41314921  0.13498351    -1.13400
O59         O  0.55595078  0.45446092  0.09790710    -0.72600
C60         C  0.55017998  0.43972761  0.07489183     0.98100
C61         C  0.51874019  0.36188192  0.16183886     0.94500
Al62       Al  0.49465669  0.39383544  0.15129992     1.55600
O63         O  0.57622298  0.42294897  0.12337741    -0.77200
C64         C  0.49194128  0.43928317  0.13226447     0.98700
C65         C  0.48581200  0.36589735  0.09714488     0.93600
O66         O  0.50855013  0.36963755  0.09902098    -0.82500
O67         O  0.42377797  0.56070327  0.17026661    -0.82000
C68         C  0.42690875  0.52559212  0.05608635     0.97400
O69         O  0.44126527  0.54507755  0.07247870    -0.71100
O70         O  0.45151590  0.57950081  0.11694091    -0.74700
Al71       Al  0.44420102  0.54481359  0.11570426     1.49000
C72         C  0.43822088  0.59019702  0.11332105     0.92600
O73         O  0.36688010  0.53491968  0.11478505    -0.80900
O74         O  0.36814834  0.48468238  0.14281854    -0.74500
Al75       Al  0.39686572  0.54658401  0.14009285     1.90100
O76         O  0.36645204  0.50458077  0.08651246    -0.73600
O77         O  0.40976273  0.48330415  0.12505944    -0.73400
O78         O  0.40847902  0.50497123  0.06775069    -0.79100
O79         O  0.44735158  0.51538512  0.11302590    -0.77300
O80         O  0.40996684  0.52936609  0.12065190    -1.13400
O81         O  0.44910339  0.54489391  0.15878652    -0.72600
C82         C  0.44071185  0.55486995  0.17799390     0.98100
C83         C  0.35672426  0.51825500  0.09385550     0.94500
Al84       Al  0.38998948  0.49722368  0.10673624     1.55600
O85         O  0.41392050  0.57676632  0.11423682    -0.77200
C86         C  0.43350681  0.49222445  0.12053019     0.98700
C87         C  0.36652454  0.49583501  0.16672649     0.93600
O88         O  0.37855529  0.52004147  0.16862992    -0.82500
O89         O  0.19511482  0.12531974  0.40774886    -0.82000
C90         C  0.23114038  0.14543699  0.02636413     0.97400
O91         O  0.23934891  0.13529983  0.00711703    -0.71100
O92         O  0.20218541  0.09511962  0.48098887    -0.74700
Al93       Al  0.22964889  0.12657847  0.46583259     1.49000
C94         C  0.17929683  0.08227019  0.47191610     0.92600
O95         O  0.16272286  0.13030677  0.48056853    -0.80900
O96         O  0.22453416  0.19014566  0.44151123    -0.74500
Al97       Al  0.18078399  0.12828169  0.44501274     1.90100
O98         O  0.19110635  0.17055454  0.49061307    -0.73600
O99         O  0.25991408  0.18611060  0.47515624    -0.73400
O100        O  0.22225585  0.15961905  0.01796867    -0.79100
O101        O  0.26042260  0.15477529  0.45071552    -0.77300
O102        O  0.21140971  0.14284832  0.46371027    -1.13400
O103        O  0.22345055  0.11497791  0.42420974    -0.72600
C104        C  0.21151789  0.11841086  0.40248934     0.98100
C105        C  0.16848005  0.15160223  0.49309488     0.94500
Al106      Al  0.22382268  0.17423851  0.48028530     1.55600
O107        O  0.16951158  0.09285164  0.45608993    -0.77200
C108        C  0.27220324  0.17738565  0.46081829     0.98700
C109        C  0.20417140  0.18280402  0.42598719     0.93600
O110        O  0.18515020  0.16012732  0.42901797    -0.82500
O111        O  0.45944204  0.23955561  0.00329639    -0.82000
C112        C  0.42482051  0.24629328  0.38914510     0.97400
O113        O  0.41467006  0.22723407  0.40767565    -0.71100
O114        O  0.44732706  0.21658935  0.43355505    -0.74700
Al115      Al  0.42270877  0.22399225  0.44981124     1.49000
C116        C  0.47038997  0.22449757  0.44068105     0.92600
O117        O  0.49362814  0.29190936  0.43746001    -0.80900
O118        O  0.43364182  0.29161344  0.47985901    -0.74500
Al119      Al  0.47480914  0.27018179  0.47140347     1.90100
O120        O  0.46806598  0.30793387  0.43266191    -0.73600
O121        O  0.39731892  0.25757457  0.44120689    -0.73400
O122        O  0.43525790  0.26934070  0.39868115    -0.79100
O123        O  0.39435419  0.22503784  0.46652097    -0.77300
O124        O  0.44407271  0.25771343  0.45353037    -1.13400
O125        O  0.42729636  0.21532712  0.49064357    -0.72600
C126        C  0.43645051  0.22380150  0.01180851     0.98100
C127        C  0.48966571  0.30957035  0.42814655     0.94500
Al128      Al  0.43437175  0.27975491  0.43936739     1.55600
O129        O  0.48307475  0.24510232  0.45564914    -0.77200
C130        C  0.38381125  0.23660990  0.45518758     0.98700
C131        C  0.45294678  0.30023368  0.49763344     0.93600
O132        O  0.47206332  0.29706438  0.49189388    -0.82500
O133        O  0.51030869  0.13314579  0.33468718    -0.82000
C134        C  0.51661992  0.09177175  0.44726481     0.97400
O135        O  0.49568032  0.08840082  0.43575955    -0.71100
O136        O  0.49368031  0.12958313  0.41876490    -0.74700
Al137      Al  0.48811088  0.09946122  0.39753625     1.49000
C138        C  0.50493853  0.15264279  0.40946852     0.92600
O139        O  0.56505638  0.15890533  0.39263972    -0.80900
O140        O  0.53938150  0.09331560  0.34473787    -0.74500
Al141      Al  0.53643216  0.14403927  0.36437125     1.90100
O142        O  0.57168751  0.12626006  0.38946911    -0.73600
O143        O  0.50982428  0.06291979  0.38840868    -0.73400
O144        O  0.53648780  0.09827314  0.43085365    -0.79100
O145        O  0.47636301  0.06648809  0.37802294    -0.77300
O146        O  0.52057472  0.11351301  0.38355068    -1.13400
O147        O  0.47544694  0.10872371  0.36238105    -0.72600
C148        C  0.48609703  0.12095383  0.33799083     0.98100
C149        C  0.57920612  0.14916615  0.39758396     0.94500
Al150      Al  0.53787101  0.09668244  0.38794566     1.55600
O151        O  0.52119101  0.15970742  0.38791728    -0.77200
C152        C  0.48683828  0.05276193  0.38009848     0.98700
C153        C  0.54878343  0.11213259  0.32623934     0.93600
O154        O  0.55449668  0.13451915  0.33523485    -0.82500
O155        O  0.38078115  0.86378339  0.42000959    -0.82000
C156        C  0.42441013  0.89512897  0.30418650     0.97400
O157        O  0.40798456  0.90080999  0.31455900    -0.71100
O158        O  0.36704809  0.85949916  0.33501779    -0.74700
Al159      Al  0.38971544  0.89168365  0.35338519     1.49000
C160        C  0.35658900  0.83718444  0.34646340     0.92600
O161        O  0.41284309  0.83650897  0.36802425    -0.80900
O162        O  0.45016165  0.90690557  0.40647308    -0.74500
Al163      Al  0.39726845  0.85223549  0.39269202     1.90100
O164        O  0.45078622  0.87118703  0.36807766    -0.73600
O165        O  0.44679410  0.93168482  0.35765621    -0.73400
O166        O  0.43918655  0.89166033  0.32178928    -0.79100
O167        O  0.40904740  0.92618577  0.36928342    -0.77300
O168        O  0.40996804  0.88083559  0.36999774    -1.13400
O169        O  0.36777554  0.88385602  0.38881560    -0.72600
C170        C  0.36751162  0.87437317  0.41488013     0.98100
C171        C  0.43711128  0.84700222  0.36572780     0.94500
Al172      Al  0.44385904  0.89892391  0.36388128     1.55600
O173        O  0.36619524  0.83270063  0.36977721    -0.77200
C174        C  0.43279079  0.94110382  0.36465847     0.98700
C175        C  0.44267391  0.88955173  0.42699144     0.93600
O176        O  0.42532990  0.86647992  0.42124535    -0.82500
O177        O  0.19424800  0.05167121  0.16677747    -0.82000
C178        C  0.23256549  0.10368770  0.27672977     0.97400
O179        O  0.23427536  0.08417936  0.26901783    -0.71100
O180        O  0.19194110  0.04264631  0.25323338    -0.74700
Al181      Al  0.22380759  0.06362729  0.23243418     1.49000
C182        C  0.16966979  0.03142138  0.24197053     0.92600
O183        O  0.16958691  0.08661957  0.21704684    -0.80900
O184        O  0.23593374  0.12014566  0.17042082    -0.74500
Al185      Al  0.18351696  0.06949132  0.19276696     1.90100
O186        O  0.20465593  0.12436872  0.21352150    -0.73600
O187        O  0.26537620  0.12017485  0.21439582    -0.73400
O188        O  0.23089524  0.11812112  0.25676729    -0.79100
O189        O  0.25788007  0.08062924  0.21531103    -0.77300
O190        O  0.21336779  0.08346677  0.21320379    -1.13400
O191        O  0.21457527  0.03956828  0.19913772    -0.72600
C192        C  0.20486034  0.03853448  0.17305112     0.98100
C193        C  0.18064603  0.11099664  0.21811146     0.94500
Al194      Al  0.23266786  0.11774189  0.21387638     1.55600
O195        O  0.16514252  0.03997105  0.21788868    -0.77200
C196        C  0.27327598  0.10439195  0.21197949     0.98700
C197        C  0.21701218  0.11191368  0.15235877     0.93600
O198        O  0.19471401  0.09524428  0.16132214    -0.82500
O199        O  0.46046510  0.18287520  0.25246657    -0.82000
C200        C  0.42592814  0.19940039  0.14087505     0.97400
O201        O  0.42166712  0.17742318  0.14970971    -0.71100
O202        O  0.46556350  0.18078444  0.16485781    -0.74700
Al203      Al  0.43357139  0.16783615  0.18568297     1.49000
C204        C  0.48776117  0.19110242  0.17660785     0.92600
O205        O  0.48690786  0.24414217  0.20487092    -0.80900
O206        O  0.41744077  0.20947179  0.24550693    -0.74500
Al207      Al  0.47199192  0.21234929  0.22762067     1.90100
O208        O  0.45218348  0.24751651  0.20693518    -0.73600
O209        O  0.39210216  0.18210621  0.19707482    -0.73400
O210        O  0.43021691  0.21712277  0.15972960    -0.79100
O211        O  0.39977950  0.15043359  0.20429633    -0.77300
O212        O  0.44340295  0.19750195  0.20527924    -1.13400
O213        O  0.44403489  0.15270929  0.21706059    -0.72600
C214        C  0.45229168  0.15995711  0.24388091     0.98100
C215        C  0.47630714  0.25783462  0.20339336     0.94500
Al216      Al  0.42444750  0.21270443  0.20249924     1.55600
O217        O  0.49180209  0.20228660  0.20221810    -0.77200
C218        C  0.38400412  0.15849532  0.20194430     0.98700
C219        C  0.43524447  0.21955677  0.26517171     0.93600
O220        O  0.45811024  0.22503292  0.25851721    -0.82500
O221        O  0.15015426  0.96402303  0.07486188    -0.82000
C222        C  0.13816766  0.90945128  0.47270661     0.97400
O223        O  0.15126223  0.93289092  0.48039489    -0.71100
O224        O  0.16007905  0.97406161  0.51168214    -0.74700
Al225      Al  0.16729113  0.94339271  0.02039051     1.49000
C226        C  0.14384468  0.97585172  0.01033849     0.92600
O227        O  0.08543956  0.91326183  0.04091632    -0.80900
O228        O  0.11179390  0.88324957  0.07830058    -0.74500
Al229      Al  0.11931539  0.93762678  0.05601900     1.90100
O230        O  0.09013954  0.88150794  0.02344192    -0.73600
O231        O  0.15249391  0.89016073  0.05203225    -0.73400
O232        O  0.12997657  0.89152628  0.49256135    -0.79100
O233        O  0.18186188  0.92085357  0.02443314    -0.77300
O234        O  0.13609609  0.92322312  0.03783683    -1.13400
O235        O  0.18225101  0.95837150  0.05855891    -0.72600
C236        C  0.17325379  0.96854875  0.07660853     0.98100
C237        C  0.07620744  0.89129740  0.02858580     0.94500
Al238      Al  0.12275023  0.88905844  0.03700994     1.55600
O239        O  0.12260728  0.95955575  0.02219221    -0.77200
C240        C  0.17486373  0.90128439  0.04113924     0.98700
C241        C  0.10968738  0.89683995  0.09878648     0.93600
O242        O  0.11318899  0.91896002  0.09305619    -0.82500
O243        O  0.27733072  0.81741964  0.00021643    -0.82000
C244        C  0.23667381  0.80765393  0.11877515     0.97400
O245        O  0.25485922  0.82842235  0.10761823    -0.71100
O246        O  0.29484122  0.82692127  0.08541261    -0.74700
Al247      Al  0.27188131  0.83683339  0.06834299     1.49000
C248        C  0.30613066  0.81690653  0.07137176     0.92600
O249        O  0.24976469  0.76007052  0.05531466    -0.80900
O250        O  0.20980865  0.79015858  0.01613425    -0.74500
Al251      Al  0.26311401  0.78989984  0.02868429     1.90100
O252        O  0.21112411  0.75567567  0.05757739    -0.73600
O253        O  0.21417238  0.82015957  0.06268438    -0.73400
O254        O  0.22123059  0.78922668  0.10189361    -0.79100
O255        O  0.25259134  0.85248820  0.05358260    -0.77300
O256        O  0.25085449  0.80581803  0.05222955    -1.13400
O257        O  0.29286947  0.85023668  0.03236167    -0.72600
C258        C  0.29198639  0.84108536  0.00595206     0.98100
C259        C  0.22574384  0.74613820  0.06003603     0.94500
Al260      Al  0.21694807  0.79016566  0.05904044     1.55600
O261        O  0.29578531  0.80308055  0.04820239    -0.77200
C262        C  0.22873412  0.84376425  0.05727200     0.98700
C263        C  0.21404389  0.78355729  0.49668623     0.93600
O264        O  0.23117771  0.77750048  0.50208280    -0.82500
O265        O  0.22327763  0.76535944  0.25372898    -0.82000
C266        C  0.18915477  0.76680647  0.36905938     0.97400
O267        O  0.20855375  0.78082173  0.35230440    -0.71100
O268        O  0.24232455  0.79000900  0.30778246    -0.74700
Al269      Al  0.20796277  0.78488649  0.30926716     1.49000
C270        C  0.25082144  0.77470783  0.31188570     0.92600
O271        O  0.19249273  0.70522720  0.30463585    -0.80900
O272        O  0.14637239  0.70816946  0.28517315    -0.74500
Al273      Al  0.20661630  0.73698341  0.28201802     1.90100
O274        O  0.16863138  0.70912889  0.33995378    -0.73600
O275        O  0.14598120  0.75111284  0.30064362    -0.73400
O276        O  0.16772179  0.75023370  0.35758078    -0.79100
O277        O  0.17837072  0.78882214  0.31253435    -0.77300
O278        O  0.19128806  0.75085972  0.30359636    -1.13400
O279        O  0.20834391  0.79116983  0.26625185    -0.72600
C280        C  0.21848546  0.78314697  0.24681443     0.98100
C281        C  0.17817158  0.69656676  0.32806569     0.94500
Al282      Al  0.15980196  0.73141719  0.31940696     1.55600
O283        O  0.23612551  0.75069598  0.30856875    -0.77200
C284        C  0.15508762  0.77496252  0.30494186     0.98700
C285        C  0.15578650  0.70724216  0.25948230     0.93600
O286        O  0.17939022  0.72184670  0.25335843    -0.82500
O287        O  0.07992502  0.88391863  0.34553023    -0.82000
C288        C  0.09078287  0.86287985  0.22406717     0.97400
O289        O  0.10936572  0.87257111  0.24270422    -0.71100
O290        O  0.11138249  0.91337003  0.26670107    -0.74700
Al291      Al  0.11017525  0.88385120  0.28412663     1.49000
C292        C  0.10316879  0.92684347  0.27920155     0.92600
O293        O  0.04001239  0.88153688  0.27727236    -0.80900
O294        O  0.04207532  0.82066870  0.31172333    -0.74500
Al295      Al  0.06120318  0.88231855  0.31056910     1.90100
O296        O  0.02782031  0.84148707  0.26460379    -0.73600
O297        O  0.08082834  0.82452984  0.27756484    -0.73400
O298        O  0.06789040  0.84915970  0.23339461    -0.79100
O299        O  0.11338462  0.85637174  0.30093065    -0.77300
O300        O  0.07593711  0.86756913  0.28923442    -1.13400
O301        O  0.11825992  0.89865585  0.32446638    -0.72600
C302        C  0.10398158  0.89327850  0.34793526     0.98100
C303        C  0.02437409  0.86075124  0.26397041     0.94500
Al304      Al  0.05635913  0.83647183  0.27307785     1.55600
O305        O  0.08571198  0.91739827  0.29948972    -0.77200
C306        C  0.10171329  0.83321284  0.29228550     0.98700
C307        C  0.02960791  0.82794870  0.32839507     0.93600
O308        O  0.03361858  0.85077380  0.32686645    -0.82500
O309        O  0.86896828  0.45788515  0.07933073    -0.82000
C310        C  0.90379093  0.48378174  0.20072818     0.97400
O311        O  0.91101526  0.47280859  0.18139740    -0.71100
O312        O  0.87201208  0.43146190  0.15953806    -0.74700
Al313      Al  0.90011888  0.46007182  0.14073159     1.49000
C314        C  0.84968309  0.41742747  0.14901335     0.92600
O315        O  0.83383356  0.46355949  0.14843123    -0.80900
O316        O  0.89643368  0.52250735  0.11000277    -0.74500
Al317      Al  0.85290449  0.46113068  0.11503975     1.90100
O318        O  0.86130930  0.50434442  0.15863160    -0.73600
O319        O  0.93120577  0.51937559  0.14614018    -0.73400
O320        O  0.89420643  0.49731979  0.19180213    -0.79100
O321        O  0.93064009  0.48665832  0.12305638    -0.77300
O322        O  0.88264243  0.47650961  0.13548543    -1.13400
O323        O  0.89291287  0.44392104  0.10061744    -0.72600
C324        C  0.88360731  0.44848946  0.07698231     0.98100
C325        C  0.83877156  0.48482378  0.16016105     0.94500
Al326      Al  0.89483086  0.50842555  0.15038330     1.55600
O327        O  0.84146584  0.42602275  0.12807792    -0.77200
C328        C  0.94302152  0.50938011  0.13299466     0.98700
C329        C  0.87736862  0.51359768  0.09191539     0.93600
O330        O  0.85735030  0.49210930  0.09723739    -0.82500
O331        O  0.12927329  0.58121554  0.17685948    -0.82000
C332        C  0.09420587  0.57681882  0.05597865     0.97400
O333        O  0.08705728  0.55766394  0.07367077    -0.71100
O334        O  0.12471901  0.55279303  0.09657189    -0.74700
Al335      Al  0.09679672  0.55467726  0.11470806     1.49000
C336        C  0.14675073  0.56081589  0.10781945     0.92600
O337        O  0.16497095  0.62551591  0.10962507    -0.80900
O338        O  0.10325779  0.62199701  0.14815851    -0.74500
Al339      Al  0.14517721  0.60211677  0.14215527     1.90100
O340        O  0.13716368  0.63824471  0.09963451    -0.73600
O341        O  0.06767837  0.58561972  0.11232304    -0.73400
O342        O  0.10392350  0.59944259  0.06657183    -0.79100
O343        O  0.06618679  0.55132022  0.13172691    -0.77300
O344        O  0.11531545  0.58868129  0.12156160    -1.13400
O345        O  0.10239998  0.54457274  0.15447356    -0.72600
C346        C  0.11323794  0.55742045  0.17825770     0.98100
C347        C  0.15968919  0.64162534  0.09771812     0.94500
Al348      Al  0.10395443  0.60947109  0.10789778     1.55600
O349        O  0.15573743  0.57869513  0.12732457    -0.77200
C350        C  0.05497844  0.56358096  0.12438133     0.98700
C351        C  0.12216767  0.63158852  0.16642166     0.93600
O352        O  0.14102496  0.62790531  0.16270344    -0.82500
O353        O  0.78740635  0.53850219  0.00615020    -0.82000
C354        C  0.80832521  0.57449111  0.38746240     0.97400
O355        O  0.79630471  0.58077075  0.40634638    -0.71100
O356        O  0.75617732  0.54153634  0.43097917    -0.74700
Al357      Al  0.78558169  0.56995748  0.44809045     1.49000
C358        C  0.74300727  0.51970197  0.44316660     0.92600
O359        O  0.79070049  0.50411702  0.43721911    -0.80900
O360        O  0.84989326  0.56607623  0.47554292    -0.74500
Al361      Al  0.78862719  0.52275726  0.47212306     1.90100
O362        O  0.83086356  0.53300418  0.42582763    -0.73600
O363        O  0.84558221  0.60179014  0.44315655    -0.73400
O364        O  0.82308609  0.56651072  0.39666035    -0.79100
O365        O  0.81216865  0.60096415  0.46457695    -0.77300
O366        O  0.80293997  0.55292293  0.45213264    -1.13400
O367        O  0.77147772  0.56255752  0.48910700    -0.72600
C368        C  0.77958647  0.55435017  0.01045899     0.98100
C369        C  0.81205360  0.51009626  0.42425986     0.94500
Al370      Al  0.83469518  0.56591303  0.43655596     1.55600
O371        O  0.75312792  0.51141088  0.46199476    -0.77200
C372        C  0.83556618  0.61323164  0.45696836     0.98700
C373        C  0.84267692  0.54551863  0.49069975     0.93600
O374        O  0.82007770  0.52665747  0.48777543    -0.82500
O375        O  0.89973950  0.80304083  0.41789562    -0.82000
C376        C  0.89954180  0.76668864  0.03083998     0.97400
O377        O  0.88580044  0.77233850  0.01422517    -0.71100
O378        O  0.87307487  0.79618793  0.47005352    -0.74700
Al379      Al  0.87907830  0.76762364  0.47230373     1.49000
C380        C  0.88761104  0.82005278  0.47425142     0.92600
O381        O  0.95812961  0.83329687  0.47093486    -0.80900
O382        O  0.95517120  0.78189757  0.44776049    -0.74500
Al383      Al  0.92722893  0.81520708  0.44699063     1.90100
O384        O  0.95558716  0.80398694  0.50301890    -0.73600
O385        O  0.91287101  0.73973744  0.46395542    -0.73400
O386        O  0.91595723  0.76146468  0.01952395    -0.79100
O387        O  0.87513906  0.73410957  0.47623355    -0.77300
O388        O  0.91330073  0.78540406  0.46728856    -1.13400
O389        O  0.87375033  0.76198141  0.42929572    -0.72600
C390        C  0.88251589  0.78043943  0.41012369     0.98100
C391        C  0.96711903  0.82693018  0.49325136     0.94500
Al392      Al  0.93259531  0.77300620  0.48251437     1.55600
O393        O  0.91181137  0.82977288  0.47307360    -0.77200
C394        C  0.88914936  0.72484112  0.46860979     0.98700
C395        C  0.95622608  0.79282480  0.42258209     0.93600
O396        O  0.94380747  0.80453182  0.41865616    -0.82500
O397        O  0.84934408  0.80365353  0.16782107    -0.82000
C398        C  0.85890903  0.76761797  0.28140975     0.97400
O399        O  0.83728838  0.76320932  0.27111056    -0.71100
O400        O  0.83837233  0.80575664  0.25368932    -0.74700
Al401      Al  0.82904811  0.77405628  0.23332132     1.49000
C402        C  0.84993462  0.82820829  0.24251525     0.92600
O403        O  0.90663219  0.82936950  0.22146413    -0.80900
O404        O  0.87598176  0.76153236  0.17764629    -0.74500
Al405      Al  0.87658246  0.81465929  0.19573452     1.90100
O406        O  0.91085505  0.79518141  0.21941230    -0.73600
O407        O  0.84587783  0.73321030  0.22408712    -0.73400
O408        O  0.87731461  0.77121441  0.26382496    -0.79100
O409        O  0.81403719  0.74030785  0.21571458    -0.77300
O410        O  0.86036264  0.78517185  0.21677891    -1.13400
O411        O  0.81563646  0.78344180  0.19853754    -0.72600
C412        C  0.82543737  0.79341610  0.17276859     0.98100
C413        C  0.92072600  0.81921895  0.22312068     0.94500
Al414      Al  0.87608490  0.76672386  0.22103189     1.55600
O415        O  0.86407154  0.83297549  0.21912946    -0.77200
C416        C  0.82251482  0.72489067  0.21787563     0.98700
C417        C  0.88653224  0.78011531  0.15866286     0.93600
O418        O  0.89206824  0.80261594  0.16660402    -0.82500
O419        O  0.71715831  0.53859279  0.25309482    -0.82000
C420        C  0.76240522  0.57115013  0.13684870     0.97400
O421        O  0.74348224  0.57350693  0.14603558    -0.71100
O422        O  0.70276820  0.53127432  0.16642284    -0.74700
Al423      Al  0.72461446  0.56419794  0.18468119     1.49000
C424        C  0.69132790  0.50965235  0.17980084     0.92600
O425        O  0.74703160  0.51069025  0.19930099    -0.80900
O426        O  0.78444232  0.57968476  0.24121481    -0.74500
Al427      Al  0.73248249  0.52603881  0.22545850     1.90100
O428        O  0.78561173  0.54517942  0.20004723    -0.73600
O429        O  0.78213380  0.60648374  0.19397759    -0.73400
O430        O  0.77701360  0.56882053  0.15579322    -0.79100
O431        O  0.74278977  0.59900712  0.20011465    -0.77300
O432        O  0.74530031  0.55464778  0.20259958    -1.13400
O433        O  0.70210071  0.55576661  0.21995110    -0.72600
C434        C  0.70251419  0.54745416  0.24664717     0.98100
C435        C  0.77120512  0.52121007  0.19581908     0.94500
Al436      Al  0.77939775  0.57351879  0.19810584     1.55600
O437        O  0.70054286  0.50643550  0.20420010    -0.77200
C438        C  0.76670903  0.61465820  0.19833038     0.98700
C439        C  0.77770206  0.56161837  0.26055171     0.93600
O440        O  0.76096585  0.53871844  0.25365856    -0.82500
O441        O  0.61387121  0.48519743  0.33414300    -0.82000
C442        C  0.56834515  0.47422310  0.44915154     0.97400
O443        O  0.58800136  0.49490347  0.44026176    -0.71100
O444        O  0.62793549  0.49309857  0.41910954    -0.74700
Al445      Al  0.60610478  0.50428711  0.40167221     1.49000
C446        C  0.63830169  0.48163976  0.40637173     0.92600
O447        O  0.58068047  0.42628381  0.38642040    -0.80900
O448        O  0.54574024  0.45971059  0.34437727    -0.74500
Al449      Al  0.59706534  0.45711832  0.36130275     1.90100
O450        O  0.54350698  0.42500690  0.38708155    -0.73600
O451        O  0.54899799  0.49002019  0.38921952    -0.73400
O452        O  0.55268840  0.45819867  0.43011816    -0.79100
O453        O  0.58855312  0.52193511  0.38753274    -0.77300
O454        O  0.58482059  0.47389216  0.38368439    -1.13400
O455        O  0.62780423  0.51807949  0.36622885    -0.72600
C456        C  0.62766890  0.50896717  0.33995506     0.98100
C457        C  0.55634299  0.41363814  0.38945626     0.94500
Al458      Al  0.55073789  0.45961241  0.38756472     1.55600
O459        O  0.62815400  0.46801881  0.38310780    -0.77200
C460        C  0.56467097  0.51361668  0.38607815     0.98700
C461        C  0.55260632  0.44821536  0.32552660     0.93600
O462        O  0.56955874  0.44259903  0.33273346    -0.82500
O463        O  0.47424316  0.61286468  0.42068207    -0.82000
C464        C  0.46662488  0.56852438  0.30618246     0.97400
O465        O  0.48771942  0.58676084  0.31648827    -0.71100
O466        O  0.48558450  0.62697629  0.33580558    -0.74700
Al467      Al  0.49569103  0.60499883  0.35499626     1.49000
C468        C  0.47365963  0.63743625  0.34707591     0.92600
O469        O  0.41738966  0.57917986  0.36648283    -0.80900
O470        O  0.45081138  0.54450773  0.40983550    -0.74500
Al471      Al  0.44732563  0.59581575  0.39245735     1.90100
O472        O  0.41548326  0.54176750  0.36855083    -0.73600
O473        O  0.48126051  0.54808744  0.36254417    -0.73400
O474        O  0.44869008  0.55291728  0.32373014    -0.79100
O475        O  0.51201353  0.58713165  0.37173869    -0.77300
O476        O  0.46468185  0.58380725  0.37122873    -1.13400
O477        O  0.50820213  0.62677003  0.39026320    -0.72600
C478        C  0.49814436  0.62668617  0.41590075     0.98100
C479        C  0.40445915  0.55478750  0.36474749     0.94500
Al480      Al  0.45040605  0.54974608  0.36651612     1.55600
O481        O  0.45877641  0.62718454  0.36970883    -0.77200
C482        C  0.50458823  0.56359827  0.36814253     0.98700
C483        C  0.43916577  0.55141155  0.42870811     0.93600
O484        O  0.43300020  0.56801090  0.42108251    -0.82500
O485        O  0.52912821  0.71596281  0.50236894    -0.82000
C486        C  0.57015456  0.76261731  0.11665136     0.97400
O487        O  0.57276978  0.74442955  0.10567161    -0.71100
O488        O  0.52824345  0.70589550  0.08867819    -0.74700
Al489      Al  0.56024201  0.72567994  0.06782985     1.49000
C490        C  0.50581560  0.69552416  0.07754745     0.92600
O491        O  0.50872183  0.75257212  0.05705596    -0.80900
O492        O  0.57717266  0.78674452  0.01374332    -0.74500
Al493      Al  0.52201571  0.73614709  0.03071063     1.90100
O494        O  0.54481090  0.78962688  0.05629166    -0.73600
O495        O  0.60379662  0.78159407  0.05901550    -0.73400
O496        O  0.56738514  0.77813116  0.09965188    -0.79100
O497        O  0.59405364  0.74210721  0.04869180    -0.77300
O498        O  0.55123548  0.74749594  0.05189079    -1.13400
O499        O  0.54875293  0.70271880  0.03384616    -0.72600
C500        C  0.53981234  0.70348784  0.00794544     0.98100
C501        C  0.52055092  0.77683633  0.05961922     0.94500
Al502      Al  0.57167741  0.78126445  0.05682955     1.55600
O503        O  0.50174330  0.70488099  0.05370707    -0.77200
C504        C  0.61077353  0.76561808  0.05162865     0.98700
C505        C  0.55464291  0.77747159  0.49449149     0.93600
O506        O  0.53157486  0.76080808  0.50114045    -0.82500
O507        O  0.79985466  0.85380616  0.08265195    -0.82000
C508        C  0.75715202  0.86406941  0.47083825     0.97400
O509        O  0.75626158  0.84361392  0.48053515    -0.71100
O510        O  0.80109949  0.84972356  0.49737271    -0.74700
Al511      Al  0.77296889  0.83584982  0.01512865     1.49000
C512        C  0.82784935  0.86149251  0.00831137     0.92600
O513        O  0.82168739  0.91333270  0.03224801    -0.80900
O514        O  0.75426354  0.87536706  0.07676555    -0.74500
Al515      Al  0.80944720  0.88239320  0.05664197     1.90100
O516        O  0.78463013  0.91251002  0.03485085    -0.73600
O517        O  0.72721648  0.84526499  0.03214028    -0.73400
O518        O  0.75931358  0.88127604  0.48926079    -0.79100
O519        O  0.73813939  0.81559709  0.03079874    -0.77300
O520        O  0.78027496  0.86490408  0.03499410    -1.13400
O521        O  0.78327241  0.82205982  0.04876823    -0.72600
C522        C  0.79173613  0.83052001  0.07541583     0.98100
C523        C  0.80874988  0.92481699  0.03036528     0.94500
Al524      Al  0.75859631  0.87718275  0.03366302     1.55600
O525        O  0.83080101  0.87347633  0.03297837    -0.77200
C526        C  0.72113994  0.82197987  0.03419804     0.98700
C527        C  0.77270125  0.88810463  0.09484638     0.93600
O528        O  0.79564967  0.89533852  0.08698802    -0.82500
O529        O  0.94023673  0.15091041  0.15961268    -0.82000
C530        C  0.89965302  0.14123853  0.27792721     0.97400
O531        O  0.91634817  0.16275729  0.26641131    -0.71100
O532        O  0.95695281  0.16123667  0.24512322    -0.74700
Al533      Al  0.93402566  0.17069169  0.22698453     1.49000
C534        C  0.96815933  0.15059997  0.23220086     0.92600
O535        O  0.91256131  0.09389009  0.21434355    -0.80900
O536        O  0.87250172  0.12429452  0.17662091    -0.74500
Al537      Al  0.92598945  0.12374388  0.18820824     1.90100
O538        O  0.87368177  0.08876077  0.21591783    -0.73600
O539        O  0.87663525  0.15351886  0.22424663    -0.73400
O540        O  0.88514290  0.12214707  0.26122895    -0.79100
O541        O  0.91435934  0.18510876  0.21054639    -0.77300
O542        O  0.91352119  0.13945631  0.21154931    -1.13400
O543        O  0.95544116  0.18396781  0.19101802    -0.72600
C544        C  0.95458371  0.17461893  0.16469890     0.98100
C545        C  0.88851076  0.07944192  0.21793412     0.94500
Al546      Al  0.87974047  0.12350785  0.21897018     1.55600
O547        O  0.95842735  0.13687642  0.20870366    -0.77200
C548        C  0.89082976  0.17668433  0.21622551     0.98700
C549        C  0.87966717  0.11414624  0.15622200     0.93600
O550        O  0.89674920  0.10808414  0.16177393    -0.82500
O551        O  0.80952992  0.29078452  0.24545118    -0.82000
C552        C  0.80523370  0.24753260  0.13535293     0.97400
O553        O  0.81937809  0.26984533  0.14674228    -0.71100
O554        O  0.82737473  0.30767323  0.18588744    -0.74700
Al555      Al  0.83031871  0.27750140  0.18840685     1.49000
C556        C  0.80874605  0.31176318  0.18499956     0.92600
O557        O  0.74793812  0.24709755  0.20265336    -0.80900
O558        O  0.77331557  0.21158628  0.23640114    -0.74500
Al559      Al  0.78035905  0.26801905  0.22162648     1.90100
O560        O  0.75171180  0.21543953  0.18328486    -0.73600
O561        O  0.81350549  0.22025395  0.20740498    -0.73400
O562        O  0.79400069  0.22750351  0.15240464    -0.79100
O563        O  0.84447387  0.25468929  0.18682301    -0.77300
O564        O  0.79801208  0.25550474  0.20175675    -1.13400
O565        O  0.84248321  0.28639294  0.22978788    -0.72600
C566        C  0.83187676  0.29380960  0.24962080     0.98100
C567        C  0.73833527  0.22568745  0.18932633     0.94500
Al568      Al  0.78447787  0.22179172  0.19518001     1.55600
O569        O  0.78638868  0.29385646  0.19144405    -0.77200
C570        C  0.83652436  0.23305110  0.19914735     0.98700
C571        C  0.76899216  0.22279105  0.25814864     0.93600
O572        O  0.77122646  0.24471439  0.25465298    -0.82500
O573        O  0.04846246  0.20712171  0.08335606    -0.82000
C574        C  0.08871737  0.23709862  0.46520668     0.97400
O575        O  0.07041732  0.23993743  0.47548805    -0.71100
O576        O  0.03128453  0.19826824  0.49788230    -0.74700
Al577      Al  0.05489989  0.22868696  0.01329431     1.49000
C578        C  0.02180860  0.17442484  0.01131138     0.92600
O579        O  0.07621215  0.17454496  0.03292414    -0.80900
O580        O  0.11691035  0.24598805  0.06680134    -0.74500
Al581      Al  0.06283218  0.19232500  0.05683860     1.90100
O582        O  0.11495240  0.20847740  0.02851302    -0.73600
O583        O  0.11232418  0.27005729  0.01836073    -0.73400
O584        O  0.10401638  0.23469183  0.48295616    -0.79100
O585        O  0.07362192  0.26351658  0.02773992    -0.77300
O586        O  0.07562649  0.21938924  0.03140482    -1.13400
O587        O  0.03253616  0.22135660  0.04788707    -0.72600
C588        C  0.03309663  0.21469854  0.07525908     0.98100
C589        C  0.10017121  0.18427246  0.02817292     0.94500
Al590      Al  0.10951747  0.23720070  0.02442566     1.55600
O591        O  0.03053295  0.17205066  0.03657954    -0.77200
C592        C  0.09747743  0.27878829  0.02408013     0.98700
C593        C  0.10995927  0.22914481  0.08775566     0.93600
O594        O  0.09179902  0.20635148  0.08344069    -0.82500
O595        O  0.17956321  0.46426069  0.00176820    -0.82000
C596        C  0.18878726  0.42788149  0.11572322     0.97400
O597        O  0.16756884  0.42500868  0.10612045    -0.71100
O598        O  0.17209306  0.46958811  0.08927360    -0.74700
Al599      Al  0.16011657  0.43718341  0.06883194     1.49000
C600        C  0.18313823  0.49141910  0.07630641     0.92600
O601        O  0.23767611  0.48992064  0.05491352    -0.80900
O602        O  0.20471598  0.42165113  0.01200179    -0.74500
Al603      Al  0.20744451  0.47552607  0.02924071     1.90100
O604        O  0.24030281  0.45467627  0.05404824    -0.73600
O605        O  0.17415644  0.39468955  0.05714700    -0.73400
O606        O  0.20657780  0.43080365  0.09760813    -0.79100
O607        O  0.14315983  0.40350418  0.05084696    -0.77300
O608        O  0.19075847  0.44657822  0.05120337    -1.13400
O609        O  0.14724308  0.44781474  0.03488908    -0.72600
C610        C  0.15611698  0.45610856  0.00828684     0.98100
C611        C  0.25083052  0.47881087  0.05790621     0.94500
Al612      Al  0.20515564  0.42697193  0.05506535     1.55600
O613        O  0.19584221  0.49478947  0.05195731    -0.77200
C614        C  0.15110522  0.38757977  0.05057895     0.98700
C615        C  0.21458796  0.44111423  0.49444861     0.93600
O616        O  0.22277152  0.46437705  0.50187962    -0.82500
O617        O  0.86627689  0.38452865  0.33486805    -0.82000
C618        C  0.90225432  0.43287952  0.44968955     0.97400
O619        O  0.90362786  0.41367135  0.43990240    -0.71100
O620        O  0.85910839  0.37415053  0.42296743    -0.74700
Al621      Al  0.89180839  0.39377657  0.40279402     1.49000
C622        C  0.83739184  0.36332072  0.40996046     0.92600
O623        O  0.83965352  0.41899578  0.38442125    -0.80900
O624        O  0.90861779  0.45519791  0.34554837    -0.74500
Al625      Al  0.85478517  0.40241353  0.36090682     1.90100
O626        O  0.87510036  0.45655426  0.38740200    -0.73600
O627        O  0.93488444  0.45014632  0.38969516    -0.73400
O628        O  0.89910466  0.44738637  0.43136715    -0.79100
O629        O  0.92553738  0.40993273  0.38506548    -0.77300
O630        O  0.88308452  0.41509084  0.38405016    -1.13400
O631        O  0.88139466  0.36918386  0.36985603    -0.72600
C632        C  0.87330947  0.36871659  0.34300408     0.98100
C633        C  0.85080334  0.44308143  0.38899283     0.94500
Al634      Al  0.90273842  0.44930545  0.38829678     1.55600
O635        O  0.83455943  0.37208937  0.38484685    -0.77200
C636        C  0.94164078  0.43372861  0.38394536     0.98700
C637        C  0.89142348  0.44743619  0.32529371     0.93600
O638        O  0.86872131  0.42951773  0.33084408    -0.82500
O639        O  0.12906316  0.52061235  0.41942924    -0.82000
C640        C  0.09141059  0.52616584  0.30381828     0.97400
O641        O  0.08958731  0.50576815  0.31502382    -0.71100
O642        O  0.13379613  0.51261206  0.33271211    -0.74700
Al643      Al  0.10177408  0.49955334  0.35302140     1.49000
C644        C  0.15603695  0.52477156  0.34409176     0.92600
O645        O  0.15215197  0.57802941  0.36504401    -0.80900
O646        O  0.08345556  0.54313872  0.40746101    -0.74500
Al647      Al  0.13892771  0.54800070  0.39113289     1.90100
O648        O  0.11562426  0.57814691  0.36462844    -0.73600
O649        O  0.05809532  0.51146120  0.36173493    -0.73400
O650        O  0.09352947  0.54422930  0.32085588    -0.79100
O651        O  0.06781661  0.48150399  0.37102535    -0.77300
O652        O  0.11002438  0.53008597  0.36936921    -1.13400
O653        O  0.11315056  0.48788592  0.38730416    -0.72600
C654        C  0.12168162  0.49729458  0.41347513     0.98100
C655        C  0.13984775  0.58993693  0.36145249     0.94500
Al656      Al  0.08931326  0.54309850  0.36410635     1.55600
O657        O  0.15973490  0.53765518  0.36829992    -0.77200
C658        C  0.05116785  0.48832174  0.36767716     0.98700
C659        C  0.10145039  0.55530720  0.42656303     0.93600
O660        O  0.12455324  0.56198732  0.41969354    -0.82500
O661        O  0.79228009  0.92038758  0.34264948    -0.82000
C662        C  0.76195063  0.91030883  0.21978100     0.97400
O663        O  0.75398464  0.89191803  0.23880356    -0.71100
O664        O  0.79209523  0.88934288  0.26377428    -0.74700
Al665      Al  0.76360646  0.89080479  0.28037097     1.49000
C666        C  0.81338642  0.89712454  0.27689268     0.92600
O667        O  0.83150787  0.96082125  0.27454349    -0.80900
O668        O  0.76788743  0.95868361  0.30682041    -0.74500
Al669      Al  0.81031571  0.93935351  0.30753676     1.90100
O670        O  0.80407304  0.97321994  0.26051172    -0.73600
O671        O  0.73370303  0.92028645  0.27165543    -0.73400
O672        O  0.77191472  0.93333767  0.22876354    -0.79100
O673        O  0.73288320  0.88792069  0.29602577    -0.77300
O674        O  0.78143920  0.92493851  0.28531564    -1.13400
O675        O  0.76935092  0.88227933  0.32127193    -0.72600
C676        C  0.77765394  0.89630595  0.34489384     0.98100
C677        C  0.82672645  0.97653275  0.26062684     0.94500
Al678      Al  0.77029350  0.94471013  0.26835747     1.55600
O679        O  0.82113207  0.91465117  0.29699988    -0.77200
C680        C  0.72133556  0.89918290  0.28604851     0.98700
C681        C  0.78701198  0.97075014  0.32432064     0.93600
O682        O  0.80594445  0.96686462  0.32335883    -0.82500
O683        O  0.53446938  0.77264991  0.25064851    -0.82000
C684        C  0.56859185  0.80377791  0.36631923     0.97400
O685        O  0.56385397  0.78495689  0.34902808    -0.71100
O686        O  0.54033173  0.75200570  0.30349009    -0.74700
Al687      Al  0.56878292  0.78686524  0.30615301     1.49000
C688        C  0.51639086  0.74268771  0.30759835     0.92600
O689        O  0.50236567  0.79914568  0.30438274    -0.80900
O690        O  0.55258515  0.84814800  0.28218011    -0.74500
Al691      Al  0.52128233  0.78719446  0.27998006     1.90100
O692        O  0.53036240  0.82498631  0.33784129    -0.73600
O693        O  0.59526483  0.84845787  0.29876101    -0.73400
O694        O  0.57220435  0.82516848  0.35550622    -0.79100
O695        O  0.60193930  0.81686730  0.31034647    -0.77300
O696        O  0.55046581  0.80287354  0.30123127    -1.13400
O697        O  0.57517097  0.78792215  0.26338158    -0.72600
C698        C  0.55730120  0.77797969  0.24379345     0.98100
C699        C  0.50757073  0.81308082  0.32803770     0.94500
Al700      Al  0.56174838  0.83407090  0.31720812     1.55600
O701        O  0.50654810  0.75699275  0.30550377    -0.77200
C702        C  0.61058048  0.84009836  0.30300098     0.98700
C703        C  0.54247296  0.83869337  0.25640524     0.93600
O704        O  0.53204301  0.81477162  0.25176374    -0.82500
O705        O  0.56650351  0.13371346  0.07968965    -0.82000
C706        C  0.56213450  0.10364665  0.19700156     0.97400
O707        O  0.54797653  0.10759943  0.17891834    -0.71100
O708        O  0.53849214  0.12859152  0.13107976    -0.74700
Al709      Al  0.54509776  0.10081123  0.13632160     1.49000
C710        C  0.55256223  0.15260469  0.13415658     0.92600
O711        O  0.62345388  0.16732421  0.13382552    -0.80900
O712        O  0.62305960  0.11706426  0.11665791    -0.74500
Al713      Al  0.59331271  0.14780321  0.10930417     1.90100
O714        O  0.61980605  0.13985782  0.16931317    -0.73600
O715        O  0.58037008  0.07424690  0.13270153    -0.73400
O716        O  0.57898108  0.09838998  0.18721869    -0.79100
O717        O  0.54197527  0.06789330  0.14301245    -0.77300
O718        O  0.57938272  0.11901789  0.13171360    -1.13400
O719        O  0.54028357  0.09328899  0.09363374    -0.72600
C720        C  0.54879996  0.11094625  0.07343294     0.98100
C721        C  0.63161318  0.16218346  0.15790633     0.94500
Al722      Al  0.59883602  0.10819692  0.14984789     1.55600
O723        O  0.57681647  0.16286903  0.13263210    -0.77200
C724        C  0.55663329  0.05900253  0.13714016     0.98700
C725        C  0.62534773  0.12736210  0.09066850     0.93600
O726        O  0.61149660  0.13688222  0.08319229    -0.82500
O727        O  0.44959172  0.86872399  0.17192430    -0.82000
C728        C  0.47805744  0.90795754  0.05390778     0.97400
O729        O  0.46709036  0.91586505  0.07243480    -0.71100
O730        O  0.42525461  0.87866932  0.09720377    -0.74700
Al731      Al  0.45569624  0.90563630  0.11432910     1.49000
C732        C  0.41214338  0.85548949  0.10534149     0.92600
O733        O  0.46096745  0.83925864  0.10126081    -0.80900
O734        O  0.51733477  0.90016618  0.14451738    -0.74500
Al735      Al  0.45604299  0.85609537  0.13587762     1.90100
O736        O  0.50163360  0.86802766  0.09498056    -0.73600
O737        O  0.51548272  0.93620989  0.10851991    -0.73400
O738        O  0.49275507  0.89989267  0.06340806    -0.79100
O739        O  0.48299181  0.93583218  0.13131265    -0.77300
O740        O  0.47169131  0.88725602  0.11816922    -1.13400
O741        O  0.44136863  0.89845404  0.15507733    -0.72600
C742        C  0.44199086  0.88464386  0.17665448     0.98100
C743        C  0.48316080  0.84547760  0.09112699     0.94500
Al744      Al  0.50399355  0.90011502  0.10405783     1.55600
O745        O  0.42191256  0.84505457  0.12132031    -0.77200
C746        C  0.50608776  0.94797802  0.12257906     0.98700
C747        C  0.50874423  0.87973882  0.16066768     0.93600
O748        O  0.48660542  0.86047862  0.15568025    -0.82500
O749        O  0.88788262  0.09898998  0.41560250    -0.82000
C750        C  0.85548078  0.10015097  0.02911004     0.97400
O751        O  0.87507869  0.11466570  0.01281273    -0.71100
O752        O  0.90669904  0.12561400  0.46796524    -0.74700
Al753      Al  0.87225706  0.11993656  0.46913634     1.49000
C754        C  0.91571304  0.11094935  0.47333195     0.92600
O755        O  0.85830033  0.04079790  0.46939279    -0.80900
O756        O  0.81042895  0.04385515  0.44474296    -0.74500
Al757      Al  0.87177502  0.07158662  0.44517214     1.90100
O758        O  0.83097806  0.04299911  0.50072939    -0.73600
O759        O  0.81062716  0.08616936  0.46104202    -0.73400
O760        O  0.83414971  0.08325497  0.01760904    -0.79100
O761        O  0.84282682  0.12406622  0.47208547    -0.77300
O762        O  0.85571847  0.08563365  0.46478468    -1.13400
O763        O  0.87278573  0.12510408  0.42562788    -0.72600
C764        C  0.88290486  0.11633632  0.40701200     0.98100
C765        C  0.84260686  0.03161302  0.49153381     0.94500
Al766      Al  0.82378895  0.06632526  0.47982357     1.55600
O767        O  0.90124717  0.08677426  0.47187920    -0.77200
C768        C  0.81952266  0.10990096  0.46512194     0.98700
C769        C  0.82090958  0.04276812  0.41992445     0.93600
O770        O  0.84509871  0.05520158  0.41656064    -0.82500
O771        O  0.74784023  0.21823564  0.00906831    -0.82000
C772        C  0.74689626  0.19364854  0.38442405     0.97400
O773        O  0.76681981  0.20419812  0.40118155    -0.71100
O774        O  0.77234033  0.24531977  0.42898024    -0.74700
Al775      Al  0.77161794  0.21513437  0.44340678     1.49000
C776        C  0.76531885  0.25883083  0.44373855     0.92600
O777        O  0.70087130  0.21215140  0.44731286    -0.80900
O778        O  0.70696966  0.15175818  0.47621274    -0.74500
Al779      Al  0.72534311  0.21357821  0.47710843     1.90100
O780        O  0.68765749  0.17187167  0.43493196    -0.73600
O781        O  0.74191979  0.15580609  0.43454470    -0.73400
O782        O  0.72464379  0.18060644  0.39602006    -0.79100
O783        O  0.77545860  0.18745272  0.45664976    -0.77300
O784        O  0.73808172  0.19892307  0.45227910    -1.13400
O785        O  0.78327699  0.22916325  0.48418126    -0.72600
C786        C  0.77196415  0.22770245  0.00958607     0.98100
C787        C  0.68341383  0.19049822  0.43747653     0.94500
Al788      Al  0.71709518  0.16766268  0.43656062     1.55600
O789        O  0.74868698  0.24895953  0.46495374    -0.77200
C790        C  0.76358917  0.16452221  0.44736632     0.98700
C791        C  0.69743466  0.15960753  0.49665133     0.93600
O792        O  0.70020438  0.18199833  0.49539322    -0.82500
C793        C  0.78425627  0.11361246  0.43904392    -0.12500
C794        C  0.80298042  0.12164731  0.46219288     0.04500
C795        C  0.80704345  0.14233405  0.48129810    -0.07800
C796        C  0.79399041  0.15572820  0.47570513    -0.08500
C797        C  0.77572052  0.14837351  0.45219257    -0.03100
C798        C  0.77058507  0.12678927  0.43390187     0.03800
N799        N  0.75324019  0.11928341  0.40857498     0.66300
H800        H  0.78104171  0.09784148  0.42409626     0.15200
H801        H  0.79841223  0.17218741  0.48986116     0.14900
N802        N  0.82356641  0.14934282  0.50742256     0.74000
O803        O  0.76165739  0.12965389  0.38266810    -0.39500
O804        O  0.73158624  0.09885198  0.41038713    -0.39400
O805        O  0.84521028  0.16985735  0.50673937    -0.40100
O806        O  0.81408151  0.13872936  0.53293195    -0.40200
C807        C  0.64108657  0.11613591  0.04309115    -0.12500
C808        C  0.64634816  0.13101263  0.06981647     0.04500
C809        C  0.67137951  0.15199961  0.07440728    -0.07800
C810        C  0.68986494  0.15937888  0.05121692    -0.08500
C811        C  0.68405022  0.14617044  0.02325116    -0.03100
C812        C  0.66004882  0.12327751  0.01998622     0.03800
N813        N  0.65402592  0.10539854  0.49208710     0.66300
H814        H  0.62201295  0.09967710  0.03963370     0.15200
H815        H  0.70798558  0.17726246  0.05385070     0.14900
N816        N  0.67733922  0.16833044  0.10055188     0.74000
O817        O  0.66009800  0.08808756  0.48936683    -0.39500
O818        O  0.63769252  0.10553251  0.47397089    -0.39400
O819        O  0.69140023  0.16718089  0.12128248    -0.40100
O820        O  0.67548064  0.18836758  0.09825913    -0.40200
C821        C  0.55648520  0.01987360  0.11631552    -0.12500
C822        C  0.54547480  0.03058817  0.13570366     0.04500
C823        C  0.52293692  0.01378758  0.15251364    -0.07800
C824        C  0.51131151  0.98712889  0.14864668    -0.08500
C825        C  0.52141626  0.97628755  0.12815956    -0.03100
C826        C  0.54462895  0.99298354  0.11228059     0.03800
N827        N  0.55573152  0.98320154  0.09079895     0.66300
H828        H  0.57374465  0.03241868  0.10326114     0.15200
H829        H  0.49393922  0.97488244  0.16153672     0.14900
N830        N  0.51162898  0.02336689  0.17402527     0.74000
O831        O  0.54942398  0.98113414  0.06289273    -0.39500
O832        O  0.57518315  0.98152712  0.09842300    -0.39400
O833        O  0.49109152  0.02323750  0.16706906    -0.40100
O834        O  0.51849278  0.02602456  0.20175438    -0.40200
C835        C  0.53217319  0.87237365  0.23871398    -0.12500
C836        C  0.54084592  0.85502017  0.23161329     0.04500
C837        C  0.54333654  0.85017971  0.20035573    -0.07800
C838        C  0.53511608  0.86076216  0.17722004    -0.08500
C839        C  0.52458095  0.87647279  0.18441809    -0.03100
C840        C  0.52388620  0.88293476  0.21543615     0.03800
N841        N  0.51275825  0.89835274  0.22388905     0.66300
H842        H  0.52988723  0.87615867  0.26249164     0.15200
H843        H  0.53554177  0.85540872  0.15355523     0.14900
N844        N  0.55349232  0.83390603  0.19173299     0.74000
O845        O  0.48989263  0.88749834  0.23400409    -0.39500
O846        O  0.52728100  0.92230286  0.22779956    -0.39400
O847        O  0.53834682  0.81121292  0.18265147    -0.40100
O848        O  0.57741479  0.84388539  0.18672781    -0.40200
C849        C  0.77638585  0.98311728  0.37436376    -0.12500
C850        C  0.78856710  0.99053738  0.34557714     0.04500
C851        C  0.80695765  0.01662463  0.34018161    -0.07800
C852        C  0.81536278  0.03411692  0.36444183    -0.08500
C853        C  0.80554344  0.02612871  0.39421850    -0.03100
C854        C  0.78450351  0.00088533  0.39870041     0.03800
N855        N  0.77290885  0.99227623  0.42828447     0.66300
H856        H  0.76211440  0.96310003  0.37865000     0.15200
H857        H  0.83097672  0.05364387  0.36037568     0.14900
N858        N  0.81890534  0.02520806  0.31075826     0.74000
O859        O  0.75134323  0.99050418  0.43386693    -0.39500
O860        O  0.78150334  0.98184937  0.44630783    -0.39400
O861        O  0.80995876  0.03500153  0.29229942    -0.40100
O862        O  0.84157090  0.02939116  0.30674992    -0.40200
C863        C  0.68243780  0.86950180  0.31582242    -0.12500
C864        C  0.69303788  0.88677520  0.29114490     0.04500
C865        C  0.67616613  0.88996078  0.27120237    -0.07800
C866        C  0.64926882  0.87535273  0.27594948    -0.08500
C867        C  0.63885729  0.85726190  0.29996665    -0.03100
C868        C  0.65581863  0.85482383  0.32025747     0.03800
N869        N  0.64638941  0.83800646  0.34621151     0.66300
H870        H  0.69490792  0.86703114  0.33174304     0.15200
H871        H  0.63649852  0.87733533  0.26004775     0.14900
N872        N  0.68574415  0.90648611  0.24492711     0.74000
O873        O  0.64457490  0.81608013  0.34461582    -0.39500
O874        O  0.64669152  0.84748149  0.37218605    -0.39400
O875        O  0.68625048  0.89698390  0.21923926    -0.40100
O876        O  0.68765184  0.92847027  0.24588819    -0.40200
C877        C  0.98401047  0.43624002  0.39373577    -0.12500
C878        C  0.96889559  0.44320436  0.37589558     0.04500
C879        C  0.98084479  0.46193706  0.35267456    -0.07800
C880        C  0.00757144  0.47492864  0.34937017    -0.08500
C881        C  0.02308217  0.46988236  0.36896438    -0.03100
C882        C  0.01110118  0.44943851  0.39036272     0.03800
N883        N  0.02607945  0.44311688  0.41022494     0.66300
H884        H  0.97498233  0.42172458  0.41152117     0.15200
H885        H  0.01634294  0.48983510  0.33193456     0.14900
N886        N  0.96613833  0.46814876  0.33219375     0.74000
O887        O  0.03253182  0.45362309  0.43626423    -0.39500
O888        O  0.02809067  0.42349515  0.40455002    -0.39400
O889        O  0.96477055  0.48825623  0.33691025    -0.40100
O890        O  0.96151743  0.45845270  0.30568138    -0.40200
C891        C  0.79562917  0.32267911  0.40170988    -0.12500
C892        C  0.81557994  0.33859122  0.42202736     0.04500
C893        C  0.81558027  0.32890500  0.45166492    -0.07800
C894        C  0.79732229  0.30327393  0.45933628    -0.08500
C895        C  0.77899645  0.28691709  0.43791857    -0.03100
C896        C  0.77763278  0.29705878  0.40934614     0.03800
N897        N  0.75868870  0.28125369  0.38734479     0.66300
H898        H  0.79481294  0.32954381  0.37897067     0.15200
H899        H  0.79849016  0.29566874  0.48147049     0.14900
N900        N  0.83421600  0.34455423  0.47406599     0.74000
O901        O  0.73808323  0.28212296  0.38532039    -0.39500
O902        O  0.76482131  0.27097828  0.36610839    -0.39400
O903        O  0.82815894  0.35588612  0.49406378    -0.40100
O904        O  0.85392022  0.34234460  0.47807204    -0.40200
C905        C  0.14743742  0.45969290  0.45447733    -0.12500
C906        C  0.14213395  0.46275911  0.48508801     0.04500
C907        C  0.12549876  0.47254086  0.49145377    -0.07800
C908        C  0.11764868  0.48261638  0.46748021    -0.08500
C909        C  0.12485179  0.48153116  0.43704590    -0.03100
C910        C  0.13843687  0.46844746  0.43040205     0.03800
N911        N  0.14544951  0.46616056  0.39962723     0.66300
H912        H  0.15978487  0.45168777  0.44928986     0.15200
H913        H  0.10671845  0.49216087  0.47272524     0.14900
N914        N  0.11595339  0.46920250  0.02289394     0.74000
O915        O  0.16817379  0.48115631  0.39031959    -0.39500
O916        O  0.13126991  0.44581743  0.38476734    -0.39400
O917        O  0.12846021  0.48933479  0.03872881    -0.40100
O918        O  0.09774274  0.44915089  0.03507719    -0.40200
C919        C  0.09789448  0.31703894  0.04817595    -0.12500
C920        C  0.10875394  0.30712885  0.02728148     0.04500
C921        C  0.13176753  0.32455037  0.01163650    -0.07800
C922        C  0.14443474  0.35079699  0.01886510    -0.08500
C923        C  0.13445100  0.36049092  0.04099441    -0.03100
C924        C  0.11051262  0.34358505  0.05501864     0.03800
N925        N  0.09970532  0.35267804  0.07774917     0.66300
H926        H  0.08024117  0.30403495  0.06030699     0.15200
H927        H  0.16251832  0.36369866  0.00740528     0.14900
N928        N  0.14247825  0.31601967  0.98805833     0.74000
O929        O  0.08286607  0.35840350  0.06998967    -0.39500
O930        O  0.10261548  0.34955201  0.10580264    -0.39400
O931        O  0.13736664  0.31772477  0.96036773    -0.40100
O932        O  0.16136343  0.31290744  0.99417433    -0.40200
C933        C  0.95175333  0.11847131  0.50848670    -0.12500
C934        C  0.94353136  0.12310279  0.48029009     0.04500
C935        C  0.96159793  0.14299058  0.46117419    -0.07800
C936        C  0.98678178  0.15920714  0.47133092    -0.08500
C937        C  0.99682790  0.15335000  0.99944699    -0.03100
C938        C  0.98031937  0.13059593  0.01639006     0.03800
N939        N  0.98822899  0.12486254  0.04482757     0.66300
H940        H  0.94175921  0.09796277  0.02061812     0.15200
H941        H  0.99932612  0.17484177  0.45710564     0.14900
N942        N  0.95442638  0.14765052  0.43158442     0.74000
O943        O  0.98369346  0.13282575  0.06962346    -0.39500
O944        O  0.99458500  0.10766864  0.04564658    -0.39400
O945        O  0.95119577  0.16676993  0.42773199    -0.40100
O946        O  0.95699272  0.13641898  0.40844123    -0.40200
C947        C  0.69749180  0.22219284  0.16926217    -0.12500
C948        C  0.71041747  0.21082725  0.18343646     0.04500
C949        C  0.69621104  0.18492757  0.19329951    -0.07800
C950        C  0.66994603  0.17042829  0.18727721    -0.08500
C951        C  0.65717979  0.18085091  0.17071264    -0.03100
C952        C  0.67097758  0.20735309  0.16262806     0.03800
N953        N  0.65847675  0.21944585  0.14778250     0.66300
H954        H  0.70809734  0.24234181  0.16260750     0.15200
H955        H  0.65996626  0.15028223  0.19401463     0.14900
N956        N  0.70823005  0.17285324  0.20931878     0.74000
O957        O  0.64761011  0.22882303  0.16394760    -0.39500
O958        O  0.66319977  0.22580681  0.11985974    -0.39400
O959        O  0.70610938  0.17068088  0.23815611    -0.40100
O960        O  0.71534589  0.15931079  0.19453433    -0.40200
C961        C  0.84173369  0.32550916  0.32624906    -0.12500
C962        C  0.86678609  0.34643516  0.32296499     0.04500
C963        C  0.88244693  0.34654130  0.29839899    -0.07800
C964        C  0.87155803  0.32725118  0.27575626    -0.08500
C965        C  0.84556283  0.30795678  0.27751579    -0.03100
C966        C  0.83125207  0.30614124  0.30416532     0.03800
N967        N  0.80562531  0.28505127  0.30850654     0.66300
H968        H  0.82977793  0.32477316  0.34547215     0.15200
H969        H  0.88295364  0.32828219  0.25582561     0.14900
N970        N  0.90915454  0.36574631  0.29595009     0.74000
O971        O  0.80207047  0.26274820  0.31368688    -0.39500
O972        O  0.78657391  0.28865762  0.30725512    -0.39400
O973        O  0.92438096  0.36700427  0.31672465    -0.40100
O974        O  0.91837504  0.37549377  0.26999708    -0.40200
C975        C  0.79101398  0.21928907  0.08928432    -0.12500
C976        C  0.80071966  0.24416310  0.10164316     0.04500
C977        C  0.80351581  0.26432671  0.08198465    -0.07800
C978        C  0.79564070  0.25898605  0.05119958    -0.08500
C979        C  0.78481065  0.23384033  0.03963962    -0.03100
C980        C  0.78294333  0.21400410  0.05875072     0.03800
N981        N  0.77211915  0.18814196  0.04774600     0.66300
H982        H  0.78886599  0.20353822  0.10363928     0.15200
H983        H  0.79664129  0.27422435  0.03678686     0.14900
N984        N  0.81218207  0.28976369  0.09336730     0.74000
O985        O  0.78697592  0.18056857  0.03749954    -0.39500
O986        O  0.74925736  0.17163007  0.05508364    -0.39400
O987        O  0.83462448  0.30771463  0.08671202    -0.40100
O988        O  0.79590758  0.29529876  0.10411278    -0.40200
C989        C  0.73969738  0.21008440  0.30260631    -0.12500
C990        C  0.76095466  0.21048560  0.28847319     0.04500
C991        C  0.77598941  0.20268432  0.30527389    -0.07800
C992        C  0.77057938  0.19634866  0.33641817    -0.08500
C993        C  0.74992589  0.19702589  0.35089131    -0.03100
C994        C  0.73385746  0.20311013  0.33344094     0.03800
N995        N  0.71337247  0.20524816  0.34739581     0.66300
H996        H  0.72815871  0.21624593  0.28993750     0.15200
H997        H  0.78296821  0.19155713  0.34952676     0.14900
N998        N  0.79782770  0.20279810  0.29176071     0.74000
O999        O  0.71648884  0.22744459  0.35195604    -0.39500
O1000       O  0.69078737  0.18603376  0.34724454    -0.39400
O1001       O  0.81999013  0.22224723  0.29531906    -0.40100
O1002       O  0.79583080  0.18157881  0.28384913    -0.40200
C1003       C  0.88633873  0.04213412  0.24710264    -0.12500
C1004       C  0.87683081  0.05137307  0.22381400     0.04500
C1005       C  0.85411004  0.03369207  0.20838729    -0.07800
C1006       C  0.83957538  0.00834290  0.21895871    -0.08500
C1007       C  0.84709621  0.99992222  0.24489933    -0.03100
C1008       C  0.87157671  0.01650852  0.25790023     0.03800
N1009       N  0.88079800  0.00843003  0.28342530     0.66300
H1010       H  0.90434542  0.05517176  0.25822255     0.15200
H1011       H  0.82140761  0.99557851  0.20787845     0.14900
N1012       N  0.84544842  0.04111108  0.18179538     0.74000
O1013       O  0.89452923  0.99822231  0.27848365    -0.39500
O1014       O  0.88045095  0.01674840  0.30994458    -0.39400
O1015       O  0.84904393  0.03413421  0.15577913    -0.40100
O1016       O  0.82849105  0.04765970  0.18472229    -0.40200
C1017       C  0.84656068  0.20411341  0.22887476    -0.12500
C1018       C  0.85341500  0.22181390  0.20460070     0.00900
C1019       C  0.87448025  0.22636731  0.18555646    -0.07800
C1020       C  0.88741960  0.21239001  0.19041521    -0.08500
C1021       C  0.87938257  0.19360925  0.21376834    -0.03100
C1022       C  0.85910385  0.19005060  0.23353814     0.03800
N1023       N  0.85096087  0.17228678  0.25872577     0.66300
H1024       H  0.83102558  0.20075062  0.24395068     0.15200
H1025       H  0.90284370  0.21526953  0.17496968     0.14900
N1026       N  0.88170239  0.24350236  0.15988150     0.74000
O1027       O  0.85998475  0.18052634  0.28507676    -0.39500
O1028       O  0.83078708  0.15051446  0.25619538    -0.39400
O1029       O  0.90174752  0.26546611  0.16133675    -0.40100
O1030       O  0.87132062  0.23486296  0.13417121    -0.40200
C1031       C  0.89052687  0.15155121  0.33057376    -0.12500
C1032       C  0.89789263  0.13751965  0.31134601     0.04500
C1033       C  0.90171177  0.11809797  0.32386145    -0.07800
C1034       C  0.89726210  0.11217272  0.35497245    -0.08500
C1035       C  0.88895375  0.12535783  0.37456062    -0.03100
C1036       C  0.88584104  0.14552984  0.36205581     0.03800
N1037       N  0.87754190  0.15974211  0.38062447     0.66300
H1038       H  0.88760146  0.16659776  0.32099032     0.15200
H1039       H  0.89996847  0.09668275  0.36358150     0.14900
N1040       N  0.90949577  0.10367633  0.30487766     0.74000
O1041       O  0.89417694  0.18107446  0.39186015    -0.39500
O1042       O  0.85415868  0.15400272  0.38008119    -0.39400
O1043       O  0.93167963  0.11457729  0.29270832    -0.40100
O1044       O  0.89312276  0.08089928  0.29740985    -0.40200
C1045       C  0.85869682  0.12306030  0.07762061    -0.12500
C1046       C  0.85797360  0.10208084  0.06236309     0.04500
C1047       C  0.86145345  0.08385785  0.07881221    -0.07800
C1048       C  0.86665600  0.08738245  0.11003412    -0.08500
C1049       C  0.86858680  0.10888789  0.12531865    -0.03100
C1050       C  0.86380846  0.12652834  0.10916176     0.03800
N1051       N  0.86604234  0.14896950  0.12375025     0.66300
H1052       H  0.85617266  0.13714790  0.06488725     0.15200
H1053       H  0.87084716  0.07408892  0.12193525     0.14900
N1054       N  0.86194401  0.06285215  0.06375850     0.74000
O1055       O  0.88732683  0.16987510  0.12296924    -0.39500
O1056       O  0.84587520  0.14923654  0.13180335    -0.39400
O1057       O  0.88214882  0.06698609  0.04963101    -0.40100
O1058       O  0.84554766  0.04002466  0.07130695    -0.40200
C1059       C  0.99782865  0.20945706  0.14901685    -0.12500
C1060       C  0.97271917  0.19074281  0.14040980     0.04500
C1061       C  0.96717073  0.18474485  0.10897479    -0.07800
C1062       C  0.98719015  0.19547998  0.08740361    -0.08500
C1063       C  0.01274923  0.21157718  0.09667957    -0.03100
C1064       C  0.01791592  0.21968310  0.12740814     0.03800
N1065       N  0.04347008  0.23780980  0.13709361     0.66300
H1066       H  0.00235356  0.21459154  0.17292719     0.15200
H1067       H  0.98302298  0.18926557  0.06372667     0.14900
N1068       N  0.94168745  0.16679427  0.09865366     0.74000
O1069       O  0.05060802  0.26156334  0.13687017    -0.39500
O1070       O  0.05618169  0.23002927  0.15234195    -0.39400
O1071       O  0.92907086  0.17527530  0.08450550    -0.40100
O1072       O  0.93516867  0.14330045  0.09578532    -0.40200
C1073       C  0.84936677  0.99343614  0.49477253    -0.12500
C1074       C  0.83591484  0.00414211  0.00522637     0.04500
C1075       C  0.81370134  0.98992835  0.02385347    -0.07800
C1076       C  0.80673083  0.96497167  0.03324679    -0.08500
C1077       C  0.82064204  0.95289912  0.02388977    -0.03100
C1078       C  0.84087581  0.96759049  0.50293083     0.03800
N1079       N  0.85281496  0.95457397  0.48888799     0.66300
H1080       H  0.86530198  0.00296407  0.47873480     0.15200
H1081       H  0.78919461  0.95439661  0.04667418     0.14900
N1082       N  0.79655508  0.99933900  0.03144790     0.74000
O1083       O  0.84382643  0.94251906  0.46409828    -0.39500
O1084       O  0.87495365  0.95955232  0.49750847    -0.39400
O1085       O  0.77950911  0.99645032  0.01233829    -0.40100
O1086       O  0.79360861  0.00332632  0.05923732    -0.40200
C1087       C  0.76679932  0.85681060  0.41735043    -0.12500
C1088       C  0.75761762  0.86887471  0.43742361     0.04500
C1089       C  0.75254260  0.88792647  0.42561346    -0.07800
C1090       C  0.75862138  0.89591740  0.39509036    -0.08500
C1091       C  0.76926321  0.88498150  0.37566952    -0.03100
C1092       C  0.77261263  0.86468400  0.38662198     0.03800
N1093       N  0.78433910  0.85371819  0.36794049     0.66300
H1094       H  0.77104868  0.84234289  0.42592719     0.15200
H1095       H  0.75537437  0.91109648  0.38660541     0.14900
N1096       N  0.74138874  0.89952866  0.44426327     0.74000
O1097       O  0.80827211  0.86217274  0.37041944    -0.39500
O1098       O  0.77029603  0.83194371  0.35577515    -0.39400
O1099       O  0.75573102  0.92164333  0.45547238    -0.40100
O1100       O  0.71728154  0.89054298  0.44363133    -0.40200
C1101       C  0.74856938  0.87541491  0.14373556    -0.12500
C1102       C  0.76776528  0.89476151  0.12543866     0.04500
C1103       C  0.78295550  0.91981352  0.13730140    -0.07800
C1104       C  0.77947077  0.92482322  0.16764952    -0.08500
C1105       C  0.76129914  0.90507128  0.18670105    -0.03100
C1106       C  0.74513128  0.88031582  0.17421881     0.03800
N1107       N  0.72537157  0.85987280  0.19210897     0.66300
H1108       H  0.73707720  0.85624226  0.13483025     0.15200
H1109       H  0.79198973  0.94396667  0.17667707     0.14900
N1110       N  0.80217008  0.94032925  0.11896234     0.74000
O1111       O  0.70283074  0.85663971  0.19198497    -0.39500
O1112       O  0.72885462  0.84196178  0.20184251    -0.39400
O1113       O  0.79760102  0.95730838  0.10845872    -0.40100
O1114       O  0.82517884  0.94489225  0.11972306    -0.40200
C1115       C  0.51888497  0.81650200  0.05122677    -0.12500
C1116       C  0.50691956  0.79160973  0.06397227     0.04500
C1117       C  0.48417627  0.78313757  0.08162128    -0.07800
C1118       C  0.47538177  0.80051525  0.08823114    -0.08500
C1119       C  0.48886352  0.82617332  0.07753675    -0.03100
C1120       C  0.51034945  0.83378026  0.05776917     0.03800
N1121       N  0.52463280  0.85926893  0.04499835     0.66300
H1122       H  0.53597165  0.82320535  0.03701971     0.15200
H1123       H  0.45887477  0.79435065  0.10331925     0.14900
N1124       N  0.47078725  0.75780799  0.09472999     0.74000
O1125       O  0.54268087  0.87677095  0.06048498    -0.39500
O1126       O  0.52504365  0.86193215  0.01621405    -0.39400
O1127       O  0.46837709  0.75532160  0.12353567    -0.40100
O1128       O  0.45614178  0.73894241  0.07795224    -0.40200
C1129       C  0.65506621  0.79196013  0.07141445    -0.12500
C1130       C  0.63899977  0.77522837  0.04857491     0.04500
C1131       C  0.65061612  0.77081373  0.02264444    -0.07800
C1132       C  0.67782182  0.78467645  0.01910973    -0.08500
C1133       C  0.69366031  0.80277882  0.04122209    -0.03100
C1134       C  0.68194956  0.80552328  0.06802331     0.03800
N1135       N  0.69712357  0.82252994  0.09197390     0.66300
H1136       H  0.64660940  0.79524760  0.09174869     0.15200
H1137       H  0.68639993  0.78251713  0.99819133     0.14900
N1138       N  0.63515853  0.75436197  0.99840639     0.74000
O1139       O  0.69889447  0.84441443  0.09402008    -0.39500
O1140       O  0.70228571  0.81318535  0.11505113    -0.39400
O1141       O  0.63064737  0.76419857  0.97529984    -0.40100
O1142       O  0.63142464  0.73167271  0.99674623    -0.40200
C1143       C  0.58978068  0.78043798  0.16735952    -0.12500
C1144       C  0.56799113  0.76448961  0.14981360     0.04500
C1145       C  0.54349114  0.75149491  0.16375590    -0.07800
C1146       C  0.54089086  0.75513114  0.19480195    -0.08500
C1147       C  0.56231426  0.77213322  0.21239702    -0.03100
C1148       C  0.58717229  0.78436901  0.19863869     0.03800
N1149       N  0.60969709  0.80173550  0.21549116     0.66300
H1150       H  0.60865872  0.79043988  0.15657323     0.15200
H1151       H  0.52169771  0.74539683  0.20478282     0.14900
N1152       N  0.52078210  0.73575011  0.14624629     0.74000
O1153       O  0.62325357  0.79341647  0.22768091    -0.39500
O1154       O  0.61885293  0.82577243  0.21265028    -0.39400
O1155       O  0.50686269  0.71214513  0.15292484    -0.40100
O1156       O  0.51177795  0.74641959  0.12924802    -0.40200
C1157       C  0.54761231  0.80048482  0.41599061    -0.12500
C1158       C  0.56765254  0.80001909  0.39981824     0.04500
C1159       C  0.58465004  0.79410480  0.41566696    -0.07800
C1160       C  0.58144021  0.78921572  0.44735775    -0.08500
C1161       C  0.56045978  0.78818618  0.46309166    -0.03100
C1162       C  0.54350318  0.79405026  0.44717530     0.03800
N1163       N  0.52168286  0.79302373  0.46212914     0.66300
H1164       H  0.53420746  0.80446579  0.40391881     0.15200
H1165       H  0.59417441  0.78413662  0.45919615     0.14900
N1166       N  0.60446163  0.79176492  0.40002182     0.74000
O1167       O  0.52352635  0.81355511  0.47256229    -0.39500
O1168       O  0.49957513  0.77360325  0.45816087    -0.39400
O1169       O  0.62722487  0.80382039  0.41020765    -0.40100
O1170       O  0.59812183  0.77267192  0.38260868    -0.40200
C1171       C  0.53038971  0.67062170  0.43170951    -0.12500
C1172       C  0.51400018  0.64469795  0.43993570     0.04500
C1173       C  0.51004767  0.63753886  0.47123258    -0.07800
C1174       C  0.52136258  0.65657529  0.49369205    -0.08500
C1175       C  0.53561874  0.68266723  0.48533356    -0.03100
C1176       C  0.54097266  0.68970923  0.45423457     0.03800
N1177       N  0.55545766  0.71631244  0.44535922     0.66300
H1178       H  0.53333935  0.67631138  0.40772723     0.15200
H1179       H  0.51676969  0.65116576  0.51764242     0.14900
N1180       N  0.49314683  0.61138803  0.48057720     0.74000
O1181       O  0.57821489  0.73028834  0.45495772    -0.39500
O1182       O  0.54316163  0.72750149  0.93025368    -0.39400
O1183       O  0.50266870  0.59783953  0.48945796    -0.40100
O1184       O  0.46989033  0.60417852  0.48697706    -0.40200
C1185       C  0.49049848  0.67070352  0.30556276    -0.12500
C1186       C  0.47910509  0.66300154  0.33481673     0.04500
C1187       C  0.47680938  0.68136411  0.35319271    -0.07800
C1188       C  0.48744833  0.70703709  0.34298191    -0.08500
C1189       C  0.50040281  0.71486887  0.31473272    -0.03100
C1190       C  0.50084146  0.69621974  0.29536711     0.03800
N1191       N  0.51178345  0.70292622  0.26520478     0.66300
H1192       H  0.49238581  0.65713788  0.29089148     0.15200
H1193       H  0.48705752  0.72123509  0.35806067     0.14900
N1194       N  0.46599531  0.67505653  0.38341859     0.74000
O1195       O  0.53432826  0.70690567  0.26047992    -0.39500
O1196       O  0.49712417  0.69906885  0.24264466    -0.39400
O1197       O  0.48077416  0.68013684  0.40614617    -0.40100
O1198       O  0.44305961  0.67005048  0.38775051    -0.40200
C1199       C  0.54278535  0.56348267  0.39205677    -0.12500
C1200       C  0.52289705  0.55364584  0.37013915     0.04500
C1201       C  0.51974082  0.53308225  0.35122837    -0.07800
C1202       C  0.53503756  0.52179220  0.35570285    -0.08500
C1203       C  0.55372552  0.53039142  0.37881071    -0.03100
C1204       C  0.55810104  0.55190070  0.39665365     0.03800
N1205       N  0.57639050  0.56081970  0.42106762     0.66300
H1206       H  0.54553567  0.57926362  0.40671847     0.15200
H1207       H  0.53162897  0.50546183  0.34161144     0.14900
N1208       N  0.50106418  0.52334801  0.32719932     0.74000
O1209       O  0.59851438  0.58019034  0.41674677    -0.39500
O1210       O  0.56874763  0.55312970  0.44811889    -0.39400
O1211       O  0.50837868  0.53052321  0.29994139    -0.40100
O1212       O  0.47945143  0.50338199  0.33197545    -0.40200
C1213       C  0.67164127  0.54123283  0.32388866    -0.12500
C1214       C  0.64560853  0.52570122  0.31609649     0.04500
C1215       C  0.63831984  0.52198636  0.28497434    -0.07800
C1216       C  0.65743260  0.53183133  0.26212336    -0.08500
C1217       C  0.68367134  0.54507620  0.27001838    -0.03100
C1218       C  0.69075208  0.55062171  0.30112338     0.03800
N1219       N  0.71727570  0.56403263  0.31006514     0.66300
H1220       H  0.67737433  0.54395965  0.34779440     0.15200
H1221       H  0.65180939  0.52731026  0.23829088     0.14900
N1222       N  0.61170387  0.50679532  0.27650470     0.74000
O1223       O  0.72850624  0.58811796  0.31423833    -0.39500
O1224       O  0.72737198  0.55139231  0.32033122    -0.39400
O1225       O  0.59538638  0.51252707  0.28664658    -0.40100
O1226       O  0.60408791  0.48625799  0.26137948    -0.40200
C1227       C  0.81537802  0.79160721  0.11766139    -0.12500
C1228       C  0.80960031  0.79494885  0.14801596     0.04500
C1229       C  0.79314113  0.80508703  0.15342487    -0.07800
C1230       C  0.78549558  0.81467432  0.12877109    -0.08500
C1231       C  0.79342096  0.81363468  0.09869765    -0.03100
C1232       C  0.80713375  0.80055052  0.09293173     0.03800
N1233       N  0.81536648  0.79879987  0.06260409     0.66300
H1234       H  0.82789070  0.78368142  0.11325624     0.15200
H1235       H  0.77477185  0.82452383  0.13334997     0.14900
N1236       N  0.78660772  0.80865911  0.18391873     0.74000
O1237       O  0.80215161  0.77844521  0.04733498    -0.39500
O1238       O  0.83830552  0.81428594  0.05439764    -0.39400
O1239       O  0.79910319  0.83056925  0.19632256    -0.40100
O1240       O  0.76522362  0.79205382  0.19534210    -0.40200
C1241       C  0.80599548  0.68690412  0.18345483    -0.12500
C1242       C  0.80547845  0.69689577  0.21237106     0.04500
C1243       C  0.79043924  0.67969572  0.23604266    -0.07800
C1244       C  0.77635538  0.65292995  0.23049656    -0.08500
C1245       C  0.77748846  0.64288868  0.20178786    -0.03100
C1246       C  0.79228877  0.66018168  0.17804733     0.03800
N1247       N  0.79370837  0.65086868  0.14830625     0.66300
H1248       H  0.81761476  0.69987714  0.16517984     0.15200
H1249       H  0.76570233  0.63988067  0.24915679     0.14900
N1250       N  0.79062492  0.68892062  0.26633827     0.74000
O1251       O  0.77791160  0.64895645  0.12793245    -0.39500
O1252       O  0.81376507  0.65026380  0.14054589    -0.39400
O1253       O  0.77140956  0.69040435  0.27572554    -0.40100
O1254       O  0.80681029  0.68980519  0.28551194    -0.40200
C1255       C  0.84941982  0.86924605  0.23498102    -0.12500
C1256       C  0.84508717  0.84870892  0.25468440     0.04500
C1257       C  0.83328626  0.84678462  0.28353966    -0.07800
C1258       C  0.82483757  0.86417574  0.29118604    -0.08500
C1259       C  0.82771292  0.88346956  0.27059817    -0.03100
C1260       C  0.84049919  0.88625232  0.24250409     0.03800
N1261       N  0.84360473  0.90554839  0.22080990     0.66300
H1262       H  0.85829922  0.87120969  0.21271398     0.15200
H1263       H  0.81465125  0.86165397  0.31243967     0.14900
N1264       N  0.82888251  0.82685840  0.30497507     0.74000
O1265       O  0.86435562  0.92698765  0.22043438    -0.39500
O1266       O  0.82834306  0.89935497  0.19840492    -0.39400
O1267       O  0.84455738  0.83184826  0.32670872    -0.40100
O1268       O  0.80685724  0.80685859  0.30647665    -0.40200
C1269       C  0.88726684  0.85351859  0.00304124    -0.12500
C1270       C  0.87544138  0.83598928  0.47960584     0.04500
C1271       C  0.85502844  0.83302229  0.46072539    -0.07800
C1272       C  0.83968927  0.84348394  0.46962311    -0.08500
C1273       C  0.84404171  0.85688818  0.49740622    -0.03100
C1274       C  0.87187878  0.86415702  0.01201774     0.03800
N1275       N  0.87893421  0.87983531  0.03895163     0.66300
H1276       H  0.90332795  0.85650802  0.01726808     0.15200
H1277       H  0.82340396  0.83982630  0.45540089     0.14900
N1278       N  0.84915497  0.81875854  0.43272003     0.74000
O1279       O  0.89399232  0.90386672  0.03643022    -0.39500
O1280       O  0.87511107  0.86936206  0.06507496    -0.39400
O1281       O  0.82969454  0.79635609  0.43156859    -0.40100
O1282       O  0.85963415  0.83048207  0.40804693    -0.40200
C1283       C  0.91294070  0.79275013  0.07709500    -0.12500
C1284       C  0.89799929  0.76849588  0.06402013     0.04500
C1285       C  0.88057061  0.74752665  0.08216024    -0.07800
C1286       C  0.87796029  0.75128819  0.11347213    -0.08500
C1287       C  0.89211178  0.77603601  0.12661794    -0.03100
C1288       C  0.90995917  0.79695726  0.10790376     0.03800
N1289       N  0.92430791  0.82291935  0.11897749     0.66300
H1290       H  0.92614173  0.80893752  0.06281245     0.15200
H1291       H  0.86397856  0.73511066  0.12713691     0.14900
N1292       N  0.86463861  0.72275374  0.06868614     0.74000
O1293       O  0.94865830  0.83428857  0.11831543    -0.39500
O1294       O  0.91349289  0.83643577  0.11963111    -0.39400
O1295       O  0.87387768  0.70821895  0.06337824    -0.40100
O1296       O  0.84319711  0.71745020  0.05722035    -0.40200
C1297       C  0.84768726  0.75067263  0.33489057    -0.12500
C1298       C  0.86347016  0.77054554  0.31446994     0.04500
C1299       C  0.88369699  0.79382258  0.32583005    -0.07800
C1300       C  0.88871183  0.79663126  0.35705281    -0.08500
C1301       C  0.87395055  0.77647770  0.37778560    -0.03100
C1302       C  0.85288439  0.75335791  0.36651325     0.03800
N1303       N  0.83659045  0.73257011  0.38660728     0.66300
H1304       H  0.83170618  0.73292969  0.32623900     0.15200
H1305       H  0.90484716  0.81468029  0.36480955     0.14900
N1306       N  0.89946398  0.81492957  0.30585710     0.74000
O1307       O  0.81628370  0.73127565  0.39718586    -0.39500
O1308       O  0.83935053  0.71300619  0.38819075    -0.39400
O1309       O  0.89487501  0.83327517  0.30314596    -0.40100
O1310       O  0.92113855  0.81824059  0.29751879    -0.40200
C1311       C  0.70721888  0.49381617  0.40726828    -0.12500
C1312       C  0.71520406  0.50472588  0.43637998     0.04500
C1313       C  0.69697597  0.50500896  0.45675915    -0.07800
C1314       C  0.67147713  0.49562078  0.44728675    -0.08500
C1315       C  0.66363157  0.48598034  0.41752436    -0.03100
C1316       C  0.68165671  0.48430075  0.39770620     0.03800
N1317       N  0.67512024  0.47517191  0.36690209     0.66300
H1318       H  0.72121442  0.49392990  0.39128957     0.15200
H1319       H  0.65814073  0.49723538  0.46279393     0.14900
N1320       N  0.70468369  0.51744840  0.48586680     0.74000
O1321       O  0.67922629  0.49106209  0.34553059    -0.39500
O1322       O  0.67081261  0.45280342  0.36036168    -0.39400
O1323       O  0.72280621  0.56561612  0.94890208    -0.40100
O1324       O  0.71064844  0.54440941  0.99205430    -0.40200
C1325       C  0.87363717  0.65682413  0.44569278    -0.12500
C1326       C  0.85083411  0.64156544  0.46265510     0.04500
C1327       C  0.84193854  0.65407311  0.48277586    -0.07800
C1328       C  0.85504182  0.68103029  0.48443792    -0.08500
C1329       C  0.87723526  0.69631809  0.46665915    -0.03100
C1330       C  0.88684411  0.68392796  0.44754280     0.03800
N1331       N  0.90904401  0.69848239  0.42850604     0.66300
H1332       H  0.88078825  0.64777376  0.42999275     0.15200
H1333       H  0.84764779  0.69006539  0.49983463     0.14900
N1334       N  0.81964074  0.63981912  0.50183653     0.74000
O1335       O  0.92682640  0.70441991  0.91829477    -0.39500
O1336       O  0.90606634  0.70265760  0.40083569    -0.39400
O1337       O  0.82248627  0.63493781  0.52926679    -0.40100
O1338       O  0.79829203  0.63735451  0.49367555    -0.40200
C1339       C  0.80586506  0.46530935  0.42282245    -0.12500
C1340       C  0.81673006  0.49018316  0.40975258     0.04500
C1341       C  0.83586335  0.49719961  0.38674138    -0.07800
C1342       C  0.84531291  0.48068293  0.37938886    -0.08500
C1343       C  0.83625563  0.45691460  0.39439186    -0.03100
C1344       C  0.81562015  0.44874590  0.41552996     0.03800
N1345       N  0.80619161  0.42505011  0.43205972     0.66300
H1346       H  0.79132672  0.45956173  0.44065408     0.15200
H1347       H  0.86063909  0.48698248  0.36244928     0.14900
N1348       N  0.84650862  0.52140039  0.37100737     0.74000
O1349       O  0.81695648  0.42479075  0.45681013    -0.39500
O1350       O  0.78431843  0.40615596  0.42560265    -0.39400
O1351       O  0.86842092  0.53959884  0.37874270    -0.40100
O1352       O  0.83775418  0.52211918  0.34496063    -0.40200
C1353       C  0.80253170  0.55367372  0.33722851    -0.12500
C1354       C  0.80338033  0.57398757  0.35416986     0.04500
C1355       C  0.79747062  0.59140916  0.33938137    -0.07800
C1356       C  0.79071897  0.58804072  0.30816695    -0.08500
C1357       C  0.78870441  0.56689027  0.29175110    -0.03100
C1358       C  0.79496643  0.54974757  0.30656034     0.03800
N1359       N  0.79373300  0.52812453  0.29099331     0.66300
H1360       H  0.80639343  0.53980900  0.34834032     0.15200
H1361       H  0.78570048  0.60118268  0.29720773     0.14900
N1362       N  0.79774777  0.61224873  0.35572864     0.74000
O1363       O  0.81456488  0.52855664  0.28465503    -0.39500
O1364       O  0.77306293  0.50663150  0.29229337    -0.39400
O1365       O  0.81687411  0.63473440  0.35283287    -0.40100
O1366       O  0.77699439  0.60927950  0.36716755    -0.40200
C1367       C  0.75681705  0.56676047  0.04935562    -0.12500
C1368       C  0.77616551  0.56077517  0.04222100     0.04500
C1369       C  0.79248921  0.56133874  0.06573287    -0.07800
C1370       C  0.78810174  0.56578003  0.09590608    -0.08500
C1371       C  0.76761347  0.56994644  0.10369561    -0.03100
C1372       C  0.75230786  0.57119657  0.07984063     0.03800
N1373       N  0.73217960  0.57688797  0.08593848     0.66300
H1374       H  0.74501227  0.56766742  0.03147628     0.15200
H1375       H  0.80086268  0.56565491  0.11332577     0.14900
N1376       N  0.81481154  0.55927981  0.05914795     0.74000
O1377       O  0.73695038  0.59992237  0.08388033    -0.39500
O1378       O  0.70901350  0.55875987  0.08663704    -0.39400
O1379       O  0.83624017  0.57970546  0.05552744    -0.40100
O1380       O  0.81434875  0.53829054  0.06441590    -0.40200
C1381       C  0.16222619  0.53136499  0.12377065    -0.12500
C1382       C  0.16073120  0.54699394  0.10077093     0.04500
C1383       C  0.16996267  0.54671866  0.07116679    -0.07800
C1384       C  0.17957372  0.53013500  0.06470918    -0.08500
C1385       C  0.17887515  0.51261724  0.08694157    -0.03100
C1386       C  0.17085718  0.51396114  0.11707338     0.03800
N1387       N  0.17082186  0.49753308  0.14094286     0.66300
H1388       H  0.15533338  0.53169066  0.14656484     0.15200
H1389       H  0.18563118  0.52956542  0.04141668     0.14900
N1390       N  0.16872641  0.56231965  0.04710375     0.74000
O1391       O  0.19028258  0.50550262  0.15808972    -0.39500
O1392       O  0.14977690  0.47809300  0.14907470    -0.39400
O1393       O  0.18900970  0.58264589  0.03905437    -0.40100
O1394       O  0.14929246  0.55299788  0.02975227    -0.40200
C1395       C  0.11024337  0.58937072  0.50263886    -0.12500
C1396       C  0.09327159  0.57286346  0.02239505     0.04500
C1397       C  0.07377161  0.55044342  0.00792173    -0.07800
C1398       C  0.07558235  0.54253933  0.47509913    -0.08500
C1399       C  0.09607379  0.56157470  0.45765001    -0.03100
C1400       C  0.11312309  0.58541998  0.47155790     0.03800
N1401       N  0.13366956  0.60583929  0.45447453     0.66300
H1402       H  0.12944614  0.60785871  0.01569895     0.15200
H1403       H  0.06234426  0.52414985  0.46475404     0.14900
N1404       N  0.05150574  0.53190151  0.02456696     0.74000
O1405       O  0.13009740  0.62292097  0.44220897    -0.39500
O1406       O  0.15640855  0.60995904  0.45749580    -0.39400
O1407       O  0.03080443  0.53261306  0.02279694    -0.40100
O1408       O  0.05089430  0.51193671  0.03511220    -0.40200
C1409       C  0.08398381  0.54435359  0.22278418    -0.12500
C1410       C  0.10543625  0.54512494  0.20854333     0.04500
C1411       C  0.12021802  0.53674227  0.22476713    -0.07800
C1412       C  0.11407472  0.52891406  0.25541841    -0.08500
C1413       C  0.09371841  0.52987967  0.27034426    -0.03100
C1414       C  0.07812554  0.53697527  0.25361567     0.03800
N1415       N  0.05626784  0.53664099  0.26750636     0.66300
H1416       H  0.07240631  0.55056383  0.21029457     0.15200
H1417       H  0.12613884  0.52342681  0.26808164     0.14900
N1418       N  0.14187622  0.53671102  0.21083418     0.74000
O1419       O  0.05833155  0.55738916  0.27751412    -0.39500
O1420       O  0.03408164  0.51737412  0.26341934    -0.39400
O1421       O  0.16421316  0.55569183  0.21507274    -0.40100
O1422       O  0.13948165  0.51557469  0.20178828    -0.40200
C1423       C  0.84335930  0.38424086  0.18731971    -0.12500
C1424       C  0.83430743  0.39046610  0.16083762     0.04500
C1425       C  0.81293863  0.37031608  0.14527612    -0.07800
C1426       C  0.80338598  0.34439739  0.15426495    -0.08500
C1427       C  0.81442529  0.33843139  0.17902980    -0.03100
C1428       C  0.83357094  0.35870984  0.19651752     0.03800
N1429       N  0.84381291  0.35365543  0.22349880     0.66300
H1430       H  0.85885992  0.39924463  0.20061574     0.15200
H1431       H  0.78808853  0.32899518  0.14122507     0.14900
N1432       N  0.80099707  0.37565784  0.12019252     0.74000
O1433       O  0.86664723  0.35770948  0.22301472    -0.39500
O1434       O  0.83277060  0.35153830  0.24898171    -0.39400
O1435       O  0.80325401  0.36896611  0.09342082    -0.40100
O1436       O  0.78360789  0.38123078  0.12568907    -0.40200
C1437       C  0.86796966  0.51001155  0.03727527    -0.12500
C1438       C  0.87748291  0.52631586  0.06280391     0.04500
C1439       C  0.88138706  0.55158338  0.06064624    -0.07800
C1440       C  0.87319264  0.55897967  0.03411017    -0.08500
C1441       C  0.86000220  0.54096630  0.01072547    -0.03100
C1442       C  0.85874583  0.51678426  0.01176301     0.03800
N1443       N  0.84915692  0.50102780  0.48565812     0.66300
H1444       H  0.86539452  0.49076903  0.03827231     0.15200
H1445       H  0.87484725  0.57781081  0.03319975     0.14900
N1446       N  0.89080013  0.56879069  0.08617356     0.74000
O1447       O  0.86291003  0.50241267  0.46287966    -0.39500
O1448       O  0.82758459  0.48083734  0.48974505    -0.39400
O1449       O  0.91322177  0.58823411  0.08496655    -0.40100
O1450       O  0.87507302  0.56788309  0.10625519    -0.40200
C1451       C  0.90472428  0.45507477  0.24044746    -0.12500
C1452       C  0.90466232  0.47802399  0.23377125     0.04500
C1453       C  0.90280124  0.49248722  0.25847926    -0.07800
C1454       C  0.89899227  0.48250801  0.28859164    -0.08500
C1455       C  0.89767311  0.45881753  0.29442409    -0.03100
C1456       C  0.90126568  0.44550329  0.27021154     0.03800
N1457       N  0.90156489  0.42211139  0.27531034     0.66300
H1458       H  0.90636137  0.44361766  0.22227305     0.15200
H1459       H  0.89702454  0.49320393  0.30744774     0.14900
N1460       N  0.90598588  0.51762872  0.25388488     0.74000
O1461       O  0.88054142  0.40098119  0.27450575    -0.39500
O1462       O  0.92240079  0.42210815  0.27075959    -0.39400
O1463       O  0.89081165  0.52347528  0.26719558    -0.40100
O1464       O  0.92736656  0.53553248  0.24395221    -0.40200
C1465       C  0.89050371  0.41728977  0.00413605    -0.12500
C1466       C  0.90246526  0.43737795  0.48315634     0.04500
C1467       C  0.90825988  0.46167415  0.49491415    -0.07800
C1468       C  0.90332434  0.46599721  0.02646147    -0.08500
C1469       C  0.89096503  0.44449646  0.04596174    -0.03100
C1470       C  0.88526255  0.42006646  0.03496200     0.03800
N1471       N  0.87232463  0.39763878  0.05399324     0.66300
H1472       H  0.88970251  0.39765686  0.49513299     0.15200
H1473       H  0.90859303  0.48500093  0.03503679     0.14900
N1474       N  0.92152045  0.48461016  0.47672973     0.74000
O1475       O  0.84803039  0.38606636  0.05612348    -0.39500
O1476       O  0.88428609  0.38643445  0.06291675    -0.39400
O1477       O  0.90972071  0.49602109  0.46798079    -0.40100
O1478       O  0.94588428  0.49639614  0.47563973    -0.40200
C1479       C  0.98545450  0.55067095  0.12902673    -0.12500
C1480       C  0.97165435  0.52357757  0.13082253     0.04500
C1481       C  0.98560759  0.51022321  0.13179173    -0.07800
C1482       C  0.01253199  0.52384766  0.13055063    -0.08500
C1483       C  0.02645355  0.55085809  0.12800354    -0.03100
C1484       C  0.01260484  0.56435613  0.12723452     0.03800
N1485       N  0.02567170  0.59187202  0.12489832     0.66300
H1486       H  0.97513359  0.56125683  0.12857021     0.15200
H1487       H  0.02255074  0.51296088  0.13110042     0.14900
N1488       N  0.97286018  0.48276592  0.13507002     0.74000
O1489       O  0.02837825  0.60228900  0.09890467    -0.39500
O1490       O  0.02925523  0.60514678  0.14879997    -0.39400
O1491       O  0.97044843  0.46905980  0.11192114    -0.40100
O1492       O  0.96949091  0.47299890  0.16156403    -0.40200
C1493       C  0.79558473  0.48108983  0.15569191    -0.12500
C1494       C  0.81778376  0.48800118  0.17328914     0.04500
C1495       C  0.82164155  0.50205714  0.20046327    -0.07800
C1496       C  0.80493942  0.51109781  0.20819174    -0.08500
C1497       C  0.78396073  0.50607506  0.18950546    -0.03100
C1498       C  0.77864085  0.49013963  0.16357944     0.03800
N1499       N  0.75811127  0.48550651  0.14321476     0.66300
H1500       H  0.79259001  0.47057107  0.13454291     0.15200
H1501       H  0.80912181  0.52318354  0.22781514     0.14900
N1502       N  0.84294384  0.50804429  0.22007435     0.74000
O1503       O  0.76235335  0.50104178  0.12137573    -0.39500
O1504       O  0.73798281  0.46355214  0.14293012    -0.39400
O1505       O  0.86187070  0.53079345  0.22042913    -0.40100
O1506       O  0.83989432  0.49286707  0.24190376    -0.40200
C1507       C  0.01575727  0.80509526  0.37824267    -0.12500
C1508       C  0.00916473  0.81001312  0.34921406     0.04500
C1509       C  0.98339570  0.80313316  0.34324630    -0.07800
C1510       C  0.96555424  0.79506044  0.36726205    -0.08500
C1511       C  0.97286841  0.79322370  0.39723978    -0.03100
C1512       C  0.99755431  0.79619151  0.40225568     0.03800
N1513       N  0.00517683  0.79251861  0.43199393     0.66300
H1514       H  0.03549075  0.81008332  0.38290402     0.15200
H1515       H  0.94639081  0.79195849  0.36279373     0.14900
N1516       N  0.97564950  0.80668829  0.31354510     0.74000
O1517       O  0.00205944  0.77067395  0.43913816    -0.39500
O1518       O  0.01959562  0.81189594  0.44819880    -0.39400
O1519       O  0.96428993  0.78750651  0.29593299    -0.40100
O1520       O  0.97346650  0.82628538  0.30875467    -0.40200
C1521       C  0.99162481  0.83942024  0.22420772    -0.12500
C1522       C  0.00083742  0.85720623  0.24831848     0.04500
C1523       C  0.98484329  0.86646546  0.26003682    -0.07800
C1524       C  0.95905208  0.85531628  0.24992148    -0.08500
C1525       C  0.94896682  0.83482324  0.22874652    -0.03100
C1526       C  0.96605784  0.82799001  0.21465566     0.03800
N1527       N  0.95776449  0.80888347  0.19107808     0.66300
H1528       H  0.00388764  0.83279165  0.21412850     0.15200
H1529       H  0.94645684  0.86137766  0.26028545     0.14900
N1530       N  0.99359610  0.88538500  0.28387685     0.74000
O1531       O  0.96660982  0.81592967  0.16427954    -0.39500
O1532       O  0.94898801  0.78556652  0.19860449    -0.39400
O1533       O  0.00156338  0.90867426  0.27695066    -0.40100
O1534       O  0.98787040  0.87825944  0.31146853    -0.40200
C1535       C  0.14542244  0.80867457  0.32212865    -0.12500
C1536       C  0.13895860  0.78745068  0.30289778     0.04500
C1537       C  0.11859545  0.78011778  0.28180880    -0.07800
C1538       C  0.10611033  0.79472187  0.27946670    -0.08500
C1539       C  0.11332348  0.81656950  0.29796212    -0.03100
C1540       C  0.13284094  0.82303136  0.32006948     0.03800
N1541       N  0.14004549  0.84394007  0.34097319     0.66300
H1542       H  0.16054796  0.81432624  0.33900325     0.15200
H1543       H  0.09126275  0.78938305  0.26230979     0.14900
N1544       N  0.11142429  0.75911258  0.26113944     0.74000
O1545       O  0.12894751  0.83954869  0.36679691    -0.39500
O1546       O  0.16093171  0.86483949  0.33669823    -0.39400
O1547       O  0.09402886  0.73679525  0.26913871    -0.40100
O1548       O  0.11654058  0.76396232  0.23296918    -0.40200
C1549       C  0.18495345  0.65843152  0.33166801    -0.12500
C1550       C  0.17066067  0.67046067  0.34003960     0.04500
C1551       C  0.14753820  0.65606703  0.35704375    -0.07800
C1552       C  0.13938091  0.63063018  0.36512559    -0.08500
C1553       C  0.15270313  0.61809307  0.35544814    -0.03100
C1554       C  0.17607577  0.63235489  0.33903710     0.03800
N1555       N  0.19002413  0.62035430  0.32787230     0.66300
H1556       H  0.20251591  0.66895579  0.31827900     0.15200
H1557       H  0.12136400  0.62010498  0.37771652     0.14900
N1558       N  0.13028450  0.66562954  0.36323050     0.74000
O1559       O  0.18595437  0.61137178  0.30097243    -0.39500
O1560       O  0.20986153  0.62372820  0.34197586    -0.39400
O1561       O  0.11614671  0.66572003  0.34185045    -0.40100
O1562       O  0.12405328  0.66682230  0.39064963    -0.40200
C1563       C  0.13446533  0.66154312  0.24508750    -0.12500
C1564       C  0.14014984  0.68662985  0.23765433     0.04500
C1565       C  0.13585612  0.69221703  0.20764667    -0.07800
C1566       C  0.12734774  0.67307772  0.18494706    -0.08500
C1567       C  0.12366629  0.64851650  0.19181679    -0.03100
C1568       C  0.12670727  0.64260774  0.22236358     0.03800
N1569       N  0.12359076  0.61800809  0.23032180     0.66300
H1570       H  0.13819606  0.65723353  0.26806330     0.15200
H1571       H  0.12542037  0.67795429  0.16150631     0.14900
N1572       N  0.14111510  0.71757045  0.19981078     0.74000
O1573       O  0.14317062  0.61522266  0.23075108    -0.39500
O1574       O  0.10342623  0.60193676  0.24447583    -0.39400
O1575       O  0.16258481  0.73346400  0.18792753    -0.40100
O1576       O  0.12616297  0.72528618  0.20927459    -0.40200
C1577       C  0.19053885  0.70232470  0.04946418    -0.12500
C1578       C  0.21320319  0.71797240  0.06582717     0.04500
C1579       C  0.22045558  0.70671548  0.08945218    -0.07800
C1580       C  0.20371698  0.68076194  0.09797085    -0.08500
C1581       C  0.17984845  0.66589721  0.08326139    -0.03100
C1582       C  0.17390768  0.67667759  0.05787291     0.03800
N1583       N  0.15076594  0.66213998  0.04059844     0.66300
H1584       H  0.18496584  0.71049475  0.03081433     0.15200
H1585       H  0.20856155  0.67284175  0.11751288     0.14900
N1586       N  0.24338670  0.72176494  0.10680062     0.74000
O1587       O  0.13067418  0.66260784  0.04856024    -0.39500
O1588       O  0.15264681  0.65615157  0.01332049    -0.39400
O1589       O  0.24142073  0.72632824  0.13466624    -0.40100
O1590       O  0.26446498  0.72434044  0.09705755    -0.40200
C1591       C  0.37554430  0.82953303  0.06998276    -0.12500
C1592       C  0.38437287  0.84152044  0.09844928     0.04500
C1593       C  0.36702671  0.84349361  0.11865420    -0.07800
C1594       C  0.34149799  0.83454538  0.10978743    -0.08500
C1595       C  0.33243996  0.82293486  0.08106481    -0.03100
C1596       C  0.34976848  0.82013764  0.06114683     0.03800
N1597       N  0.34233691  0.80993534  0.03087953     0.66300
H1598       H  0.38888169  0.82852189  0.05408202     0.15200
H1599       H  0.32934367  0.83778563  0.12471531     0.14900
N1600       N  0.37546504  0.85612414  0.14761864     0.74000
O1601       O  0.34474839  0.82491131  0.00908295    -0.39500
O1602       O  0.33892202  0.78779339  0.02491752    -0.39400
O1603       O  0.38027189  0.87911295  0.15036683    -0.40100
O1604       O  0.37235023  0.84279442  0.17140752    -0.40200
C1605       C  0.24622106  0.79443775  0.20076848    -0.12500
C1606       C  0.22509910  0.79402666  0.21547705     0.04500
C1607       C  0.20931382  0.80091611  0.19861440    -0.07800
C1608       C  0.21338230  0.80549843  0.16693068    -0.08500
C1609       C  0.23378054  0.80460929  0.15218199    -0.03100
C1610       C  0.25084063  0.80000591  0.16950374     0.03800
N1611       N  0.27279378  0.80056018  0.15567193     0.66300
H1612       H  0.25888439  0.78975622  0.21345377     0.15200
H1613       H  0.20046158  0.80944749  0.15381931     0.14900
N1614       N  0.18828408  0.80195794  0.21277914     0.74000
O1615       O  0.29502512  0.81786674  0.16370101    -0.39500
O1616       O  0.27015673  0.78078248  0.14203347    -0.39400
O1617       O  0.19187281  0.82321340  0.22312779    -0.40100
O1618       O  0.16555981  0.78402388  0.20783165    -0.40200
C1619       C  0.19862672  0.75494052  0.45174948    -0.12500
C1620       C  0.20227009  0.77758660  0.46588023     0.04500
C1621       C  0.19849523  0.79538330  0.44853235    -0.07800
C1622       C  0.19401014  0.79156012  0.41680662    -0.08500
C1623       C  0.19175485  0.76949109  0.40257427    -0.03100
C1624       C  0.19304924  0.75059041  0.42052288     0.03800
N1625       N  0.18970222  0.72725738  0.40729802     0.66300
H1626       H  0.20100676  0.74086824  0.46485576     0.15200
H1627       H  0.19231824  0.80582756  0.40325903     0.14900
N1628       N  0.19958210  0.81752006  0.46250830     0.74000
O1629       O  0.20894374  0.72697370  0.39572055    -0.39500
O1630       O  0.17005587  0.70615266  0.41471019    -0.39400
O1631       O  0.21802679  0.83971197  0.45605828    -0.40100
O1632       O  0.17934878  0.81539588  0.47449785    -0.40200
C1633       C  0.00871860  0.83398380  0.02059766    -0.12500
C1634       C  0.99627443  0.84411859  0.00287086     0.04500
C1635       C  0.01015240  0.87073300  0.99506378    -0.07800
C1636       C  0.03582616  0.88633426  0.00491203    -0.08500
C1637       C  0.04840323  0.87564523  0.02125321    -0.03100
C1638       C  0.03449957  0.84918164  0.02920197     0.03800
N1639       N  0.04645280  0.83714756  0.04544984     0.66300
H1640       H  0.99885702  0.81367828  0.02659834     0.15200
H1641       H  0.04634002  0.90653248  0.99843986     0.14900
N1642       N  0.99020310  0.88449880  0.49670678     0.74000
O1643       O  0.04330763  0.83402672  0.07410918    -0.39500
O1644       O  0.05448539  0.82436762  0.03066793    -0.39400
O1645       O  0.99052656  0.89556323  0.98876614    -0.40100
O1646       O  0.99222471  0.89280052  0.46960493    -0.40200
C1647       C  0.18091472  0.86755020  0.06615070    -0.12500
C1648       C  0.19149143  0.88966767  0.04740740     0.04500
C1649       C  0.21623830  0.89834623  0.03430207    -0.07800
C1650       C  0.22873653  0.88378201  0.03840068    -0.08500
C1651       C  0.21702698  0.86066533  0.05554640    -0.03100
C1652       C  0.19318052  0.85319996  0.07027092     0.03800
N1653       N  0.18096432  0.83104339  0.08988309     0.66300
H1654       H  0.16243620  0.86070592  0.07744273     0.15200
H1655       H  0.24726121  0.89019551  0.02744650     0.14900
N1656       N  0.22895679  0.92171137  0.01683777     0.74000
O1657       O  0.18416268  0.83402318  0.11850952    -0.39500
O1658       O  0.16251899  0.81026699  0.07965356    -0.39400
O1659       O  0.24582530  0.94215561  0.02958690    -0.40100
O1660       O  0.22757152  0.92073198  0.98792798    -0.40200
C1661       C  0.14770853  0.91987372  0.41732741    -0.12500
C1662       C  0.13126961  0.90308689  0.44024512     0.04500
C1663       C  0.10691742  0.88235227  0.43188110    -0.07800
C1664       C  0.09903263  0.87946260  0.40151887    -0.08500
C1665       C  0.11486501  0.89678040  0.37885087    -0.03100
C1666       C  0.13980731  0.91673357  0.38664691     0.03800
N1667       N  0.15666009  0.93489276  0.36427945     0.66300
H1668       H  0.16642289  0.93593729  0.42337648     0.15200
H1669       H  0.08001904  0.86369748  0.39578668     0.14900
N1670       N  0.08895837  0.86507705  0.45404847     0.74000
O1671       O  0.15747319  0.95630572  0.36163940    -0.39500
O1672       O  0.17477154  0.93232485  0.35314000    -0.39400
O1673       O  0.06891160  0.86636562  0.45974731    -0.40100
O1674       O  0.08904846  0.84448064  0.46008383    -0.40200
C1675       C  0.07703169  0.87326058  0.17565534    -0.12500
C1676       C  0.09536939  0.86944994  0.19127539     0.04500
C1677       C  0.11814305  0.87415279  0.17590266    -0.07800
C1678       C  0.12204259  0.88236879  0.14528412    -0.08500
C1679       C  0.10406048  0.88695376  0.13020573    -0.03100
C1680       C  0.08139968  0.88236779  0.14550248     0.03800
N1681       N  0.06266556  0.88686453  0.13082817     0.66300
H1682       H  0.05964954  0.87016020  0.18729630     0.15200
H1683       H  0.13952741  0.88593069  0.13351015     0.14900
N1684       N  0.13742726  0.87071626  0.19090588     0.74000
O1685       O  0.04294420  0.86807603  0.11918168    -0.39500
O1686       O  0.06238380  0.90741024  0.13656197    -0.39400
O1687       O  0.13865244  0.85059082  0.18569516    -0.40100
O1688       O  0.15646092  0.88994683  0.20300946    -0.40200
C1689       C  0.50121866  0.17163293  0.13531268    -0.12500
C1690       C  0.50813995  0.18746723  0.16142578     0.04500
C1691       C  0.53272846  0.19582317  0.17462591    -0.07800
C1692       C  0.54823981  0.18592209  0.16377707    -0.08500
C1693       C  0.53971314  0.16784743  0.13992865    -0.03100
C1694       C  0.51657602  0.16172832  0.12466135     0.03800
N1695       N  0.50782166  0.14460516  0.09894977     0.66300
H1696       H  0.48292566  0.16543522  0.12409018     0.15200
H1697       H  0.56614705  0.19105683  0.17538678     0.14900
N1698       N  0.54176496  0.21325546  0.19997339     0.74000
O1699       O  0.49119378  0.12112964  0.10305512    -0.39500
O1700       O  0.51184456  0.15392425  0.07215924    -0.39400
O1701       O  0.54107563  0.20465170  0.22663726    -0.40100
O1702       O  0.55558126  0.23716528  0.19487789    -0.40200
C1703       C  0.20923847  0.03048358  0.11877209    -0.12500
C1704       C  0.20483463  0.02130681  0.14909147     0.04500
C1705       C  0.19561383  0.99488629  0.15480553    -0.07800
C1706       C  0.18775587  0.97767031  0.13010547    -0.08500
C1707       C  0.18962548  0.98669651  0.09999818    -0.03100
C1708       C  0.20178768  0.01337101  0.09418919     0.03800
N1709       N  0.20425048  0.02313834  0.06365510     0.66300
H1710       H  0.21664938  0.05081255  0.11418176     0.15200
H1711       H  0.17822166  0.95710100  0.13458841     0.14900
N1712       N  0.19120266  0.98485989  0.18538887     0.74000
O1713       O  0.18791886  0.02891351  0.05396805    -0.39500
O1714       O  0.22548347  0.03162164  0.04959903    -0.39400
O1715       O  0.16886633  0.97509456  0.19696608    -0.40100
O1716       O  0.20772671  0.98057405  0.19781605    -0.40200
C1717       C  0.34120602  0.14648231  0.18192875    -0.12500
C1718       C  0.35568724  0.14087457  0.20247891     0.04500
C1719       C  0.34255944  0.12050427  0.22377104    -0.07800
C1720       C  0.31535487  0.10745856  0.22536899    -0.08500
C1721       C  0.30110970  0.11454610  0.20609463    -0.03100
C1722       C  0.31434557  0.13373742  0.18360304     0.03800
N1723       N  0.30088489  0.14023699  0.16161584     0.66300
H1724       H  0.35089009  0.16149626  0.16478449     0.15200
H1725       H  0.30548207  0.09285723  0.24287472     0.14900
N1726       N  0.35639440  0.11430746  0.24557774     0.74000
O1727       O  0.29695420  0.15870673  0.16724070    -0.39500
O1728       O  0.30069263  0.13355032  0.13410466    -0.39400
O1729       O  0.35934313  0.12326669  0.27239463    -0.40100
O1730       O  0.35943105  0.09518528  0.24072256    -0.40200
C1731       C  0.13024048  0.98895787  0.23431039    -0.12500
C1732       C  0.14925143  0.00636615  0.25462987     0.04500
C1733       C  0.15015293  0.99782978  0.28463100    -0.07800
C1734       C  0.13322951  0.97208924  0.29301928    -0.08500
C1735       C  0.11590776  0.95445107  0.27176278    -0.03100
C1736       C  0.11402395  0.96308072  0.24244342     0.03800
N1737       N  0.09647603  0.94555921  0.22028002     0.66300
H1738       H  0.12913684  0.99488493  0.21114383     0.15200
H1739       H  0.13474461  0.96545633  0.31558064     0.14900
N1740       N  0.16896840  0.01447782  0.30630615     0.74000
O1741       O  0.07460666  0.94363050  0.21713098    -0.39500
O1742       O  0.10457431  0.93609909  0.20015519    -0.39400
O1743       O  0.16271167  0.02563729  0.32633105    -0.40100
O1744       O  0.18893884  0.01273736  0.31026510    -0.40200
C1745       C  0.47531484  0.84264095  0.37563262    -0.12500
C1746       C  0.45106462  0.83231823  0.36156910     0.04500
C1747       C  0.44351740  0.81150008  0.34099801    -0.07800
C1748       C  0.46190089  0.80470342  0.33117992    -0.08500
C1749       C  0.48721489  0.81708472  0.34300313    -0.03100
C1750       C  0.49305610  0.83496108  0.36719107     0.03800
N1751       N  0.51716392  0.84627839  0.38299451     0.66300
H1752       H  0.48104898  0.85771185  0.39266928     0.15200
H1753       H  0.45642669  0.78990412  0.31388719     0.14900
N1754       N  0.41763161  0.79719538  0.32978117     0.74000
O1755       O  0.53527869  0.86806012  0.37445638    -0.39500
O1756       O  0.51789178  0.83812446  0.40948992    -0.39400
O1757       O  0.41377710  0.79141994  0.30168118    -0.40100
O1758       O  0.39939638  0.78499120  0.34867061    -0.40200
C1759       C  0.42664843  0.90952827  0.24996337    -0.12500
C1760       C  0.42599534  0.89155503  0.27112784     0.04500
C1761       C  0.42760668  0.87020864  0.26059365    -0.07800
C1762       C  0.43148666  0.86788732  0.22959612    -0.08500
C1763       C  0.43416537  0.88675084  0.20833725    -0.03100
C1764       C  0.43076909  0.90733931  0.21860463     0.03800
N1765       N  0.43228178  0.92660258  0.19794345     0.66300
H1766       H  0.42493729  0.92577228  0.25789833     0.15200
H1767       H  0.43298721  0.85135321  0.22237247     0.14900
N1768       N  0.42494513  0.85041452  0.28116755     0.74000
O1769       O  0.41169874  0.92492250  0.18803433    -0.39500
O1770       O  0.45309652  0.94787247  0.19583914    -0.39400
O1771       O  0.40268242  0.83205588  0.28767817    -0.40100
O1772       O  0.44454765  0.84874860  0.28802263    -0.40200
C1773       C  0.47165262  0.92621421  0.00480680    -0.12500
C1774       C  0.47171844  0.90581789  0.02090116     0.04500
C1775       C  0.45822523  0.87738132  0.50659520    -0.07800
C1776       C  0.45137868  0.87444288  0.47575716    -0.08500
C1777       C  0.45388737  0.89525481  0.45820278    -0.03100
C1778       C  0.46474250  0.91993024  0.47189460     0.03800
N1779       N  0.46710923  0.94158172  0.45513559     0.66300
H1780       H  0.47741155  0.94434101  0.01634306     0.15200
H1781       H  0.44281222  0.85527188  0.46591606     0.14900
N1782       N  0.46080417  0.86004378  0.02181960     0.74000
O1783       O  0.44777141  0.94457497  0.45218206    -0.39500
O1784       O  0.48768588  0.95613448  0.44060928    -0.39400
O1785       O  0.44076811  0.84691858  0.03789017    -0.40100
O1786       O  0.46150496  0.84106246  0.51751758    -0.40200
C1787       C  0.33712041  0.86750662  0.49306164    -0.12500
C1788       C  0.31149161  0.85877762  0.48470758     0.04500
C1789       C  0.30548614  0.85982609  0.45381087    -0.07800
C1790       C  0.32468288  0.86729464  0.43123281    -0.08500
C1791       C  0.34987064  0.87348529  0.43924143    -0.03100
C1792       C  0.35632848  0.87469999  0.47063033     0.03800
N1793       N  0.38195782  0.88195210  0.48006595     0.66300
H1794       H  0.34205079  0.87476232  0.01436935     0.15200
H1795       H  0.31947285  0.86659327  0.40729720     0.14900
N1796       N  0.27983187  0.85295204  0.44524445     0.74000
O1797       O  0.38750242  0.86458521  0.48574059    -0.39500
O1798       O  0.39649929  0.90450505  0.48997703    -0.39400
O1799       O  0.27097831  0.86738380  0.45293082    -0.40100
O1800       O  0.26505562  0.83111905  0.43361669    -0.40200
C1801       C  0.31345614  0.79830599  0.35519800    -0.12500
C1802       C  0.33122171  0.81688739  0.33453318     0.04500
C1803       C  0.32271321  0.81824991  0.30471888    -0.07800
C1804       C  0.29654390  0.80293341  0.29721057    -0.08500
C1805       C  0.27854311  0.78587914  0.31872152    -0.03100
C1806       C  0.28726717  0.78297985  0.34759714     0.03800
N1807       N  0.26944977  0.76666013  0.37058283     0.66300
H1808       H  0.31942253  0.79704547  0.37825667     0.15200
H1809       H  0.29004373  0.80512709  0.27482648     0.14900
N1810       N  0.34020006  0.83552633  0.28204187     0.74000
O1811       O  0.26712656  0.74482455  0.37574757    -0.39500
O1812       O  0.26095547  0.77626058  0.39004096    -0.39400
O1813       O  0.35020913  0.82725687  0.26284698    -0.40100
O1814       O  0.34109130  0.85675123  0.27701175    -0.40200
C1815       C  0.62331236  0.18906170  0.40512302    -0.12500
C1816       C  0.60469871  0.16344313  0.41300474     0.04500
C1817       C  0.61174524  0.14991307  0.43369884    -0.07800
C1818       C  0.63725479  0.16028517  0.44270019    -0.08500
C1819       C  0.65648688  0.18443992  0.43220363    -0.03100
C1820       C  0.64914461  0.19987067  0.41538345     0.03800
N1821       N  0.66758500  0.22608690  0.40834748     0.66300
H1822       H  0.61810831  0.20021377  0.39018690     0.15200
H1823       H  0.64223066  0.14897612  0.45762996     0.14900
N1824       N  0.59305246  0.12560664  0.44638060     0.74000
O1825       O  0.67972094  0.23170105  0.38320543    -0.39500
O1826       O  0.67374697  0.24324245  0.42861008    -0.39400
O1827       O  0.59171154  0.10517312  0.43632419    -0.40100
O1828       O  0.58350154  0.12531853  0.47235385    -0.40200
C1829       C  0.44548352  0.01056719  0.37347375    -0.12500
C1830       C  0.47264300  0.02448528  0.37385196     0.04500
C1831       C  0.48607638  0.01070511  0.36993486    -0.07800
C1832       C  0.47244029  0.98396004  0.36671689    -0.08500
C1833       C  0.44533546  0.96977469  0.36740253    -0.03100
C1834       C  0.43178032  0.98345712  0.37044816     0.03800
N1835       N  0.40422104  0.97032731  0.37050608     0.66300
H1836       H  0.43478693  0.02064513  0.37632090     0.15200
H1837       H  0.48351626  0.97423130  0.36425424     0.14900
N1838       N  0.51370148  0.02329395  0.36970887     0.74000
O1839       O  0.39224649  0.96513932  0.39579687    -0.39500
O1840       O  0.39255259  0.96963171  0.34614236    -0.39400
O1841       O  0.52534800  0.02509348  0.39448259    -0.40100
O1842       O  0.52543573  0.02611571  0.34459013    -0.40200
C1843       C  0.54649496  0.12782773  0.02282580    -0.12500
C1844       C  0.53861737  0.10611905  0.04187239     0.04500
C1845       C  0.52297123  0.08115193  0.02950299    -0.07800
C1846       C  0.53433531  0.07883127  0.49035116    -0.08500
C1847       C  0.51848506  0.08846780  0.48045424    -0.03100
C1848       C  0.50787721  0.09794917  0.50235729     0.03800
N1849       N  0.49078503  0.10698354  0.49360666     0.66300
H1850       H  0.55812309  0.14722370  0.03163007     0.15200
H1851       H  0.54226499  0.07107222  0.47387786     0.14900
N1852       N  0.51465140  0.05838583  0.04762172     0.74000
O1853       O  0.46672733  0.09175839  0.49528599    -0.39500
O1854       O  0.49934287  0.13095445  0.49124052    -0.39400
O1855       O  0.49168450  0.04629541  0.05743933    -0.40100
O1856       O  0.52802912  0.04742277  0.04779426    -0.40200
C1857       C  0.57404411  0.12854056  0.27817110    -0.12500
C1858       C  0.55297060  0.10842228  0.29369949     0.04500
C1859       C  0.53510646  0.08639162  0.27707099    -0.07800
C1860       C  0.53842985  0.08511788  0.24541665    -0.08500
C1861       C  0.55928187  0.10539542  0.23009355    -0.03100
C1862       C  0.57732751  0.12717602  0.24659158     0.03800
N1863       N  0.59850568  0.14850338  0.23142161     0.66300
H1864       H  0.58774929  0.14564854  0.29049634     0.15200
H1865       H  0.52443174  0.06847494  0.23268176     0.14900
N1866       N  0.51261608  0.06592352  0.29139023     0.74000
O1867       O  0.59515542  0.16574399  0.21918437    -0.39500
O1868       O  0.62118350  0.15297876  0.23616809    -0.39400
O1869       O  0.49244728  0.06762631  0.29326639    -0.40100
O1870       O  0.51072980  0.04402563  0.29393443    -0.40200
C1871       C  0.44505813  0.14149723  0.29554239    -0.12500
C1872       C  0.45376243  0.14210848  0.26556657     0.04500
C1873       C  0.46841277  0.13018179  0.25879943    -0.07800
C1874       C  0.47701748  0.12096439  0.28285353    -0.08500
C1875       C  0.47054622  0.12288765  0.31334656    -0.03100
C1876       C  0.45313247  0.13177334  0.31946689     0.03800
N1877       N  0.44621917  0.13439171  0.35008303     0.66300
H1878       H  0.43368274  0.15055011  0.30077740     0.15200
H1879       H  0.49025438  0.11400827  0.27792025     0.14900
N1880       N  0.47720256  0.13002011  0.22827713     0.74000
O1881       O  0.45964519  0.15556309  0.36378495    -0.39500
O1882       O  0.42343432  0.11933543  0.35919746    -0.39400
O1883       O  0.49995434  0.14658907  0.22059460    -0.40100
O1884       O  0.46466438  0.11025843  0.21181855    -0.40200
C1885       C  0.46481552  0.18087335  0.44010986    -0.12500
C1886       C  0.48099202  0.20730720  0.43418366     0.04500
C1887       C  0.50618985  0.21601422  0.42313795    -0.07800
C1888       C  0.51424818  0.19803592  0.41683569    -0.08500
C1889       C  0.49767930  0.17135267  0.42185518    -0.03100
C1890       C  0.47287094  0.16298575  0.43442950     0.03800
N1891       N  0.45492237  0.13628418  0.44006238     0.66300
H1892       H  0.44555034  0.17393176  0.44921264     0.15200
H1893       H  0.53325422  0.20492302  0.40700087     0.14900
N1894       N  0.52315400  0.24267329  0.41622950     0.74000
O1895       O  0.45283225  0.12744205  0.46685859    -0.39500
O1896       O  0.43695070  0.12388972  0.42121839    -0.39400
O1897       O  0.54201403  0.25601008  0.43364119    -0.40100
O1898       O  0.52261820  0.25117128  0.38987545    -0.40200
C1899       C  0.50080705  0.34490551  0.39217681    -0.12500
C1900       C  0.50970080  0.33317276  0.41266466     0.04500
C1901       C  0.53576378  0.34678057  0.42194984    -0.07800
C1902       C  0.55164827  0.37278007  0.41278893    -0.08500
C1903       C  0.54161951  0.38527542  0.39471806    -0.03100
C1904       C  0.51603431  0.37054773  0.38349520     0.03800
N1905       N  0.50416038  0.38156918  0.36507882     0.66300
H1906       H  0.48083520  0.33475515  0.38488561     0.15200
H1907       H  0.57119975  0.38361318  0.42140355     0.14900
N1908       N  0.54556210  0.33531757  0.44278156     0.74000
O1909       O  0.49329840  0.39239530  0.37839698    -0.39500
O1910       O  0.49705447  0.37306288  0.33827904    -0.39400
O1911       O  0.55261893  0.31998056  0.43279922    -0.40100
O1912       O  0.54349560  0.33739038  0.47134768    -0.40200
C1913       C  0.40613786  0.21795794  0.34351759    -0.12500
C1914       C  0.42555553  0.24124082  0.35605679     0.04500
C1915       C  0.44700589  0.25784385  0.33756035    -0.07800
C1916       C  0.44933274  0.25033268  0.30797125    -0.08500
C1917       C  0.43035532  0.22683668  0.29573257    -0.03100
C1918       C  0.40822320  0.21080415  0.31343446     0.03800
N1919       N  0.38895572  0.18617651  0.30241395     0.66300
H1920       H  0.38965960  0.20488703  0.35742108     0.15200
H1921       H  0.46646137  0.26279369  0.29466955     0.14900
N1922       N  0.46741156  0.28178471  0.34884247     0.74000
O1923       O  0.39074089  0.16655319  0.30885612    -0.39500
O1924       O  0.36766119  0.18324805  0.29324598    -0.39400
O1925       O  0.48737065  0.28259789  0.35960447    -0.40100
O1926       O  0.46852082  0.30248795  0.34031040    -0.40200
C1927       C  0.45427557  0.22395249  0.06288110    -0.12500
C1928       C  0.43222132  0.21566419  0.04452178     0.04500
C1929       C  0.40752005  0.20145289  0.05848192    -0.07800
C1930       C  0.40554678  0.19593706  0.09009028    -0.08500
C1931       C  0.42780163  0.20493167  0.10800010    -0.03100
C1932       C  0.45223721  0.21896786  0.09423123     0.03800
N1933       N  0.47530704  0.22820470  0.11181409     0.66300
H1934       H  0.47348172  0.23481122  0.05308649     0.15200
H1935       H  0.38667593  0.18509528  0.10075870     0.14900
N1936       N  0.38437032  0.19323426  0.04138492     0.74000
O1937       O  0.48774430  0.21629458  0.11058994    -0.39500
O1938       O  0.48631095  0.25102781  0.12185439    -0.39400
O1939       O  0.37108011  0.16987468  0.03353023    -0.40100
O1940       O  0.37442058  0.20752050  0.04037230    -0.40200
C1941       C  0.15843219  0.01112720  0.47084198    -0.12500
C1942       C  0.14490210  0.00240697  0.49874621     0.04500
C1943       C  0.13901446  0.01585243  0.01105831    -0.07800
C1944       C  0.14841201  0.04153339  0.00129409    -0.08500
C1945       C  0.16464617  0.05423479  0.47892264    -0.03100
C1946       C  0.16815057  0.03665981  0.46080342     0.03800
N1947       N  0.18284419  0.04484246  0.43294294     0.66300
H1948       H  0.16256973  0.99835446  0.45743375     0.15200
H1949       H  0.14251833  0.05355125  0.01344620     0.14900
N1950       N  0.12248567  0.00666783  0.03741308     0.74000
O1951       O  0.20661330  0.05207902  0.43348212    -0.39500
O1952       O  0.17121372  0.03934112  0.40756363    -0.39400
O1953       O  0.13219513  0.01278308  0.06387037    -0.40100
O1954       O  0.09854396  0.99776329  0.03419892    -0.40200
C1955       C  0.31353815  0.21998341  0.46344225    -0.12500
C1956       C  0.30073317  0.19328133  0.45707985     0.04500
C1957       C  0.31576132  0.18186014  0.44915689    -0.07800
C1958       C  0.34258081  0.19679753  0.44836089    -0.08500
C1959       C  0.35534095  0.22317871  0.45526730    -0.03100
C1960       C  0.34067430  0.23500879  0.46241871     0.03800
N1961       N  0.35292675  0.26170585  0.47045897     0.66300
H1962       H  0.30251544  0.22916704  0.46975412     0.15200
H1963       H  0.35360960  0.18747857  0.44257608     0.14900
N1964       N  0.30436842  0.15482282  0.44330818     0.74000
O1965       O  0.35532932  0.27805614  0.45046441    -0.39500
O1966       O  0.35583929  0.26799491  0.49842919    -0.39400
O1967       O  0.30230086  0.14707678  0.41596643    -0.40100
O1968       O  0.30214609  0.13983676  0.46501315    -0.40200
C1969       C  0.13515082  0.17574059  0.04063192    -0.12500
C1970       C  0.11239523  0.16825630  0.02419318     0.04500
C1971       C  0.10474523  0.14888116  0.00169261    -0.07800
C1972       C  0.12154887  0.13970202  0.99355148    -0.08500
C1973       C  0.14585767  0.14973799  0.00756568    -0.03100
C1974       C  0.15180674  0.16665710  0.03263811     0.03800
N1975       N  0.17518025  0.17561860  0.04954363     0.66300
H1976       H  0.14081709  0.18997418  0.05870804     0.15200
H1977       H  0.11758382  0.12947956  0.47887766     0.14900
N1978       N  0.08133472  0.14017492  0.98499592     0.74000
O1979       O  0.19443731  0.19732471  0.04304527    -0.39500
O1980       O  0.18256635  0.17982399  0.57139329    -0.39400
O1981       O  0.08198081  0.14980144  0.95898885    -0.40100
O1982       O  0.06310561  0.12341420  0.49886184    -0.40200
C1983       C  0.20522720  0.13069170  0.07336697    -0.12500
C1984       C  0.22903959  0.13850925  0.05894363     0.04500
C1985       C  0.24881503  0.13769546  0.07527505    -0.07800
C1986       C  0.24486203  0.12988288  0.10617968    -0.08500
C1987       C  0.22075964  0.12153811  0.12044516    -0.03100
C1988       C  0.20067301  0.12157556  0.10353992     0.03800
N1989       N  0.17518144  0.11137954  0.11589181     0.66300
H1990       H  0.18970942  0.13034189  0.06068877     0.15200
H1991       H  0.25911689  0.12932204  0.11779905     0.14900
N1992       N  0.27297965  0.14445738  0.06102601     0.74000
O1993       O  0.16711245  0.12660895  0.12279557    -0.39500
O1994       O  0.15898940  0.08778847  0.11195496    -0.39400
O1995       O  0.29237815  0.16634743  0.06610170    -0.40100
O1996       O  0.27625071  0.12688229  0.04964673    -0.40200
C1997       C  0.22847600  0.09944856  0.36417840    -0.12500
C1998       C  0.21726278  0.11478721  0.37039524     0.04500
C1999       C  0.21304411  0.12759372  0.34579886    -0.07800
C2000       C  0.21948703  0.12455093  0.31598307    -0.08500
C2001       C  0.23000833  0.10872320  0.30946870    -0.03100
C2002       C  0.23486702  0.09631393  0.33405204     0.03800
N2003       N  0.24677567  0.08100592  0.32909565     0.66300
H2004       H  0.23234926  0.08985160  0.38275059     0.15200
H2005       H  0.21553198  0.13434577  0.29769740     0.14900
N2006       N  0.20369326  0.14510727  0.35056809     0.74000
O2007       O  0.27109853  0.09186031  0.32850707    -0.39500
O2008       O  0.23364993  0.05686210  0.33275411    -0.39400
O2009       O  0.21890566  0.16879372  0.34570833    -0.40100
O2010       O  0.17966432  0.13664927  0.35043156    -0.40200
C2011       C  0.44389792  0.63014525  0.08708747    -0.12500
C2012       C  0.45215795  0.61859086  0.10885910     0.04500
C2013       C  0.47573585  0.63412769  0.12420850    -0.07800
C2014       C  0.49183233  0.65973788  0.11522354    -0.08500
C2015       C  0.48507863  0.67075543  0.09109018    -0.03100
C2016       C  0.46006348  0.65608905  0.07818629     0.03800
N2017       N  0.45105064  0.66677491  0.05530560     0.66300
H2018       H  0.42557026  0.61867539  0.07569027     0.15200
H2019       H  0.51039139  0.67057325  0.12633133     0.14900
N2020       N  0.48404371  0.62396547  0.14856492     0.74000
O2021       O  0.45251534  0.66208939  0.02735128    -0.39500
O2022       O  0.43660705  0.67558614  0.06319348    -0.39400
O2023       O  0.50119829  0.61800734  0.14334458    -0.40100
O2024       O  0.47869722  0.62646285  0.17596127    -0.40200
C2025       C  0.31705650  0.52278381  0.09346333    -0.12500
C2026       C  0.33169123  0.51279229  0.07978973     0.04500
C2027       C  0.32019685  0.49462047  0.05580996    -0.07800
C2028       C  0.29421673  0.48490981  0.04858976    -0.08500
C2029       C  0.27906460  0.49330430  0.06385974    -0.03100
C2030       C  0.29101860  0.51340118  0.08547569     0.03800
N2031       N  0.27663541  0.52309432  0.10124092     0.66300
H2032       H  0.32531988  0.53687932  0.11165805     0.15200
H2033       H  0.28557761  0.46999065  0.03137489     0.14900
N2034       N  0.33426247  0.48517804  0.03882625     0.74000
O2035       O  0.26605064  0.51319211  0.12661348    -0.39500
O2036       O  0.27967033  0.54483734  0.09375562    -0.39400
O2037       O  0.33113254  0.46320224  0.04526592    -0.40100
O2038       O  0.34342801  0.49499350  0.01290190    -0.40200
C2039       C  0.44693738  0.53026104  0.47354992    -0.12500
C2040       C  0.43294606  0.54094285  0.46036677     0.04500
C2041       C  0.41529689  0.54432997  0.47900441    -0.07800
C2042       C  0.41101162  0.52441362  0.00349848    -0.08500
C2043       C  0.43108125  0.52735119  0.02253394    -0.03100
C2044       C  0.44447044  0.52411561  0.50492099     0.03800
N2045       N  0.47560814  0.53538783  0.02777635     0.66300
H2046       H  0.46082531  0.52791991  0.45988730     0.15200
H2047       H  0.39242498  0.51931753  0.01346359     0.14900
N2048       N  0.40071999  0.55549161  0.46724017     0.74000
O2049       O  0.45324622  0.49141259  0.51698608    -0.39500
O2050       O  0.49323670  0.55711308  0.03690500    -0.39400
O2051       O  0.38256317  0.54311685  0.44859763    -0.40100
O2052       O  0.40605292  0.57785443  0.47547695    -0.40200
C2053       C  0.44310027  0.57462696  0.22864175    -0.12500
C2054       C  0.45013586  0.55987684  0.21007382     0.04500
C2055       C  0.46412256  0.54898381  0.22340038    -0.07800
C2056       C  0.47018900  0.55261670  0.25475693    -0.08500
C2057       C  0.46206766  0.56645002  0.27310726    -0.03100
C2058       C  0.44842953  0.57747266  0.25993010     0.03800
N2059       N  0.43880361  0.59065200  0.27832358     0.66300
H2060       H  0.43240502  0.58321145  0.21919985     0.15200
H2061       H  0.48043206  0.54388629  0.26496378     0.14900
N2062       N  0.47118425  0.53316743  0.20602368     0.74000
O2063       O  0.44937221  0.61489182  0.27642001    -0.39500
O2064       O  0.41657611  0.57797139  0.29015550    -0.39400
O2065       O  0.49424257  0.54238608  0.19703462    -0.40100
O2066       O  0.45614510  0.50904280  0.20546801    -0.40200
C2067       C  0.65746364  0.49172349  0.13903666    -0.12500
C2068       C  0.66598711  0.48866663  0.16793765     0.04500
C2069       C  0.64870141  0.46716047  0.18623700    -0.07800
C2070       C  0.62312590  0.45091591  0.17662054    -0.08500
C2071       C  0.61440556  0.45502692  0.14856635    -0.03100
C2072       C  0.63206092  0.47514955  0.12926467     0.03800
N2073       N  0.62393517  0.48047146  0.10077180     0.66300
H2074       H  0.67019833  0.50778559  0.12439933     0.15200
H2075       H  0.60973760  0.43559615  0.19170425     0.14900
N2076       N  0.65624428  0.46215128  0.21534918     0.74000
O2077       O  0.61930179  0.49885044  0.09939313    -0.39500
O2078       O  0.62795720  0.47174899  0.07626192    -0.39400
O2079       O  0.64978305  0.46908526  0.23959480    -0.40100
O2080       O  0.66429221  0.44628567  0.21703091    -0.40200
C2081       C  0.53139307  0.41585786  0.24813683    -0.12500
C2082       C  0.52565362  0.43291122  0.23283938     0.04500
C2083       C  0.52677857  0.45392848  0.24881060    -0.07800
C2084       C  0.53410532  0.45772509  0.27975575    -0.08500
C2085       C  0.54149724  0.44152331  0.29450822    -0.03100
C2086       C  0.53994573  0.42022907  0.27832623     0.03800
N2087       N  0.54804334  0.40341992  0.29134832     0.66300
H2088       H  0.53088272  0.39983135  0.23588902     0.15200
H2089       H  0.53527539  0.47412536  0.29176729     0.14900
N2090       N  0.52057624  0.47148167  0.23407953     0.74000
O2091       O  0.57181063  0.41059273  0.29123089    -0.39500
O2092       O  0.53196727  0.37956742  0.29319757    -0.39400
O2093       O  0.49857711  0.46905905  0.23838259    -0.40100
O2094       O  0.53854384  0.49238490  0.22320636    -0.40200
C2095       C  0.54596939  0.44140025  0.48924372    -0.12500
C2096       C  0.56394358  0.46718025  0.48207412     0.04500
C2097       C  0.57948759  0.48439272  0.00680534    -0.07800
C2098       C  0.57478114  0.47483661  0.03694517    -0.08500
C2099       C  0.55357097  0.45050754  0.04377846    -0.03100
C2100       C  0.53576500  0.43657361  0.02054568     0.03800
N2101       N  0.51270702  0.41282019  0.02683698     0.66300
H2102       H  0.53480070  0.42778636  0.47143254     0.15200
H2103       H  0.58820912  0.48593752  0.05460523     0.14900
N2104       N  0.59643176  0.51077840  0.50038353     0.74000
O2105       O  0.49180615  0.41303817  0.02962521    -0.39500
O2106       O  0.51207191  0.39183632  0.02096893    -0.39400
O2107       O  0.59018675  0.52778144  0.50504843    -0.40100
O2108       O  0.62345108  0.50861301  0.99621261    -0.40200
C2109       C  0.45885868  0.35128372  0.05000645    -0.12500
C2110       C  0.46760500  0.34514110  0.07679261     0.04500
C2111       C  0.46403569  0.32017804  0.08017982    -0.07800
C2112       C  0.45620560  0.30352369  0.05513825    -0.08500
C2113       C  0.45172618  0.31129685  0.02650907    -0.03100
C2114       C  0.45117621  0.33461188  0.02455563     0.03800
N2115       N  0.44109760  0.34282217  0.50255554     0.66300
H2116       H  0.46009062  0.36969850  0.04792714     0.15200
H2117       H  0.45513763  0.28501648  0.05765361     0.14900
N2118       N  0.46935938  0.31184864  0.10859003     0.74000
O2119       O  0.45665107  0.35717256  0.48204015    -0.39500
O2120       O  0.41851377  0.33945170  0.50343839    -0.39400
O2121       O  0.48681015  0.30588306  0.10949709    -0.40100
O2122       O  0.45266509  0.30414127  0.12979692    -0.40200
C2123       C  0.45167611  0.44134593  0.14224391    -0.12500
C2124       C  0.47576986  0.45138242  0.12719343     0.04500
C2125       C  0.48462437  0.47384637  0.10900017    -0.07800
C2126       C  0.46984170  0.48579539  0.10666510    -0.08500
C2127       C  0.44626695  0.47644334  0.12246758    -0.03100
C2128       C  0.43696365  0.45371555  0.14013874     0.03800
N2129       N  0.41345884  0.44368048  0.15730349     0.66300
H2130       H  0.44454695  0.42428775  0.15652653     0.15200
H2131       H  0.47736188  0.50304982  0.09265036     0.14900
N2132       N  0.50894132  0.48542633  0.09326818     0.74000
O2133       O  0.39287693  0.42569300  0.14609619    -0.39500
O2134       O  0.41434721  0.44855156  0.18560647    -0.39400
O2135       O  0.50950008  0.48181758  0.06479821    -0.40100
O2136       O  0.52853714  0.50364166  0.10592743    -0.40200
C2137       C  0.49544935  0.32846288  0.20096590    -0.12500
C2138       C  0.51447563  0.33814045  0.17791211     0.04500
C2139       C  0.52429132  0.32235998  0.16726222    -0.07800
C2140       C  0.51276905  0.29645606  0.17724416    -0.08500
C2141       C  0.49154802  0.28607924  0.19759125    -0.03100
C2142       C  0.48379414  0.30280737  0.21055433     0.03800
N2143       N  0.46355864  0.29399612  0.23296978     0.66300
H2144       H  0.48821016  0.34046944  0.21022790     0.15200
H2145       H  0.51944818  0.28410000  0.16770508     0.14900
N2146       N  0.54481380  0.33172966  0.14520581     0.74000
O2147       O  0.44081556  0.28667040  0.22427589    -0.39500
O2148       O  0.46939724  0.30032786  0.26065510    -0.39400
O2149       O  0.56759935  0.33994498  0.15434815    -0.40100
O2150       O  0.53969747  0.32639034  0.11717970    -0.40200
C2151       C  0.21573652  0.51794520  0.33606131    -0.12500
C2152       C  0.20796540  0.50050046  0.31158558     0.04500
C2153       C  0.18632632  0.49598633  0.29410758    -0.07800
C2154       C  0.17111205  0.50639655  0.30345419    -0.08500
C2155       C  0.17688478  0.52129747  0.33027237    -0.03100
C2156       C  0.20047000  0.52853285  0.34546616     0.03800
N2157       N  0.20855392  0.54536473  0.37140242     0.66300
H2158       H  0.23270006  0.52201980  0.34915785     0.15200
H2159       H  0.15381200  0.50141745  0.29055222     0.14900
N2160       N  0.17906841  0.48015055  0.26726079     0.74000
O2161       O  0.20398720  0.53592887  0.39815176    -0.39500
O2162       O  0.22494330  0.56894938  0.36763453    -0.39400
O2163       O  0.15994056  0.45752335  0.26838707    -0.40100
O2164       O  0.18808064  0.49044916  0.24147503    -0.40200
C2165       C  0.24427887  0.44525916  0.41680807    -0.12500
C2166       C  0.22214262  0.43024518  0.39924026     0.04500
C2167       C  0.19778119  0.41695022  0.41382551    -0.07800
C2168       C  0.19601262  0.41922078  0.44560540    -0.08500
C2169       C  0.21801857  0.43541944  0.46273131    -0.03100
C2170       C  0.24234435  0.44836501  0.44824433     0.03800
N2171       N  0.26520018  0.46496421  0.46504369     0.66300
H2172       H  0.26307956  0.45556842  0.40583839     0.15200
H2173       H  0.17721500  0.40950248  0.45663887     0.14900
N2174       N  0.17473121  0.40116962  0.39693500     0.74000
O2175       O  0.27920818  0.45620753  0.47466147    -0.39500
O2176       O  0.27439105  0.48908741  0.46366225    -0.39400
O2177       O  0.16236468  0.37717816  0.40209777    -0.40100
O2178       O  0.16334360  0.41160069  0.38409293    -0.40200
C2179       C  0.18552615  0.41908276  0.20203535    -0.12500
C2180       C  0.20852715  0.44144860  0.21038449     0.04500
C2181       C  0.22412558  0.45915580  0.18727087    -0.07800
C2182       C  0.21723836  0.45351477  0.15671593    -0.08500
C2183       C  0.19452290  0.43124864  0.14842329    -0.03100
C2184       C  0.17814770  0.41415899  0.17118604     0.03800
N2185       N  0.15454164  0.39148304  0.16332842     0.66300
H2186       H  0.17323414  0.40548498  0.21942047     0.15200
H2187       H  0.22945914  0.46699329  0.13924100     0.14900
N2188       N  0.24701322  0.48301343  0.19415049     0.74000
O2189       O  0.15428584  0.37041548  0.15970435    -0.39500
O2190       O  0.13346597  0.39131756  0.16650876    -0.39400
O2191       O  0.26887184  0.48544130  0.18868334    -0.40100
O2192       O  0.24532255  0.50296862  0.19871021    -0.40200
C2193       C  0.33643569  0.48060394  0.24585333    -0.12500
C2194       C  0.31103574  0.46207881  0.23887988     0.04500
C2195       C  0.30509607  0.45093953  0.20950235    -0.07800
C2196       C  0.32417122  0.46048289  0.18640694    -0.08500
C2197       C  0.34913671  0.48107415  0.19253893    -0.03100
C2198       C  0.35549442  0.49018631  0.22305025     0.03800
N2199       N  0.38080795  0.51036025  0.23092349     0.66300
H2200       H  0.34109859  0.48913002  0.26856817     0.15200
H2201       H  0.31901234  0.45297498  0.16329580     0.14900
N2202       N  0.27971875  0.43018607  0.20298744     0.74000
O2203       O  0.38482050  0.53306984  0.23390831    -0.39500
O2204       O  0.39648041  0.50451523  0.24265790    -0.39400
O2205       O  0.26326173  0.43481023  0.19105956    -0.40100
O2206       O  0.27258272  0.40796195  0.21362747    -0.40200
C2207       C  0.33429989  0.50136314  0.36315035    -0.12500
C2208       C  0.32352368  0.51111243  0.34223811     0.04500
C2209       C  0.33913497  0.53670308  0.33113497    -0.07800
C2210       C  0.36505553  0.55139205  0.34034208    -0.08500
C2211       C  0.37624667  0.54058030  0.35906315    -0.03100
C2212       C  0.36038076  0.51525561  0.37077658     0.03800
N2213       N  0.37057105  0.50244400  0.38890186     0.66300
H2214       H  0.32301186  0.48182015  0.37183618     0.15200
H2215       H  0.37685978  0.57069488  0.33119211     0.14900
N2216       N  0.32958480  0.54765588  0.30925111     0.74000
O2217       O  0.36365411  0.49721517  0.41661625    -0.39500
O2218       O  0.37952726  0.48990206  0.37538721    -0.39400
O2219       O  0.32319803  0.56379153  0.31810761    -0.40100
O2220       O  0.33343787  0.54610199  0.28100947    -0.40200
C2221       C  0.00130909  0.16618475  0.27332522    -0.12500
C2222       C  0.99377991  0.15590174  0.24373981     0.04500
C2223       C  0.01216964  0.15415546  0.22469164    -0.07800
C2224       C  0.03775188  0.16430856  0.23468144    -0.08500
C2225       C  0.04538294  0.17579721  0.26360167    -0.03100
C2226       C  0.02678226  0.17615713  0.28326999     0.03800
N2227       N  0.03373432  0.18816491  0.31267901     0.66300
H2228       H  0.98766515  0.16768794  0.28840135     0.15200
H2229       H  0.05193010  0.16404529  0.21934170     0.14900
N2230       N  0.00577467  0.14367582  0.19443976     0.74000
O2231       O  0.04344092  0.21233835  0.31447609    -0.39500
O2232       O  0.02393786  0.17447044  0.33637527    -0.39400
O2233       O  0.01165330  0.15873008  0.17171400    -0.40100
O2234       O  0.99965001  0.12043298  0.19011149    -0.40200
C2235       C  0.21957009  0.35284446  0.27263427    -0.12500
C2236       C  0.21303468  0.36250734  0.29846086     0.04500
C2237       C  0.19394179  0.34508006  0.31889326    -0.07800
C2238       C  0.18056849  0.31878792  0.31234817    -0.08500
C2239       C  0.18619334  0.30897235  0.28610158    -0.03100
C2240       C  0.20618568  0.32619285  0.26619954     0.03800
N2241       N  0.21124620  0.31741822  0.23791140     0.66300
H2242       H  0.23390166  0.36609075  0.25649413     0.15200
H2243       H  0.16527613  0.30599724  0.32763113     0.14900
N2244       N  0.18770962  0.35378963  0.34644461     0.74000
O2245       O  0.19832690  0.31604098  0.21442971    -0.39500
O2246       O  0.23170809  0.31638278  0.23485150    -0.39400
O2247       O  0.16598991  0.35235355  0.34882720    -0.40100
O2248       O  0.20077332  0.35670200  0.37031673    -0.40200
C2249       C  0.16426261  0.16441162  0.22136604    -0.12500
C2250       C  0.14465777  0.15532764  0.24362406     0.04500
C2251       C  0.13404337  0.12962112  0.25421296    -0.07800
C2252       C  0.14477248  0.11449017  0.24417916    -0.08500
C2253       C  0.16623821  0.12485452  0.22416203    -0.03100
C2254       C  0.17522749  0.14984370  0.21181091     0.03800
N2255       N  0.19652316  0.16163009  0.19074000     0.66300
H2256       H  0.17274657  0.18402440  0.21289461     0.15200
H2257       H  0.13748250  0.09533980  0.25369401     0.14900
N2258       N  0.11420456  0.11942309  0.27711618     0.74000
O2259       O  0.19243997  0.16620757  0.16369660    -0.39500
O2260       O  0.21909757  0.17449176  0.20131269    -0.39400
O2261       O  0.09124724  0.10384344  0.26934583    -0.40100
O2262       O  0.12034531  0.12124860  0.30506212    -0.40200
C2263       C  0.16911276  0.20793041  0.38005029    -0.12500
C2264       C  0.18355691  0.21538550  0.35279070     0.04500
C2265       C  0.20827911  0.21790985  0.35236200    -0.07800
C2266       C  0.21702001  0.21051418  0.37847933    -0.08500
C2267       C  0.20096782  0.20018881  0.40450294    -0.03100
C2268       C  0.17779731  0.20091876  0.40589087     0.03800
N2269       N  0.16187808  0.19273350  0.43281517     0.66300
H2270       H  0.15009292  0.20600438  0.38076082     0.15200
H2271       H  0.23508979  0.21044591  0.37730807     0.14900
N2272       N  0.22297952  0.22456955  0.32450407     0.74000
O2273       O  0.16580201  0.20899103  0.45358325    -0.39500
O2274       O  0.14075904  0.17165643  0.43247062    -0.39400
O2275       O  0.23724126  0.24804954  0.31747590    -0.40100
O2276       O  0.21764018  0.20749018  0.30433793    -0.40200
C2277       C  0.13393136  0.25836939  0.16620258    -0.12500
C2278       C  0.13558141  0.23811112  0.18056731     0.04500
C2279       C  0.13182125  0.21677703  0.16280827    -0.07800
C2280       C  0.12563420  0.21553313  0.13183846    -0.08500
C2281       C  0.12262049  0.23495035  0.11789389    -0.03100
C2282       C  0.12773545  0.25703079  0.13487558     0.03800
N2283       N  0.12507310  0.27730550  0.12115999     0.66300
H2284       H  0.13689126  0.27495289  0.17948104     0.15200
H2285       H  0.12162212  0.19839553  0.11898095     0.14900
N2286       N  0.13169639  0.19495021  0.17637179     0.74000
O2287       O  0.10300219  0.27502999  0.11886510    -0.39500
O2288       O  0.14392456  0.29526154  0.10688683    -0.39400
O2289       O  0.11160308  0.17820488  0.19011149    -0.40100
O2290       O  0.14831217  0.18913254  0.16772756    -0.40200
C2291       C  0.07809229  0.21814473  0.38152603    -0.12500
C2292       C  0.10326274  0.23224156  0.37002354     0.04500
C2293       C  0.12328567  0.24952164  0.38947443    -0.07800
C2294       C  0.11782364  0.25161873  0.42024775    -0.08500
C2295       C  0.09274311  0.23680945  0.43197971    -0.03100
C2296       C  0.07263931  0.22032585  0.41223802     0.03800
N2297       N  0.04715944  0.20367373  0.42358726     0.66300
H2298       H  0.06295066  0.20436008  0.36716336     0.15200
H2299       H  0.13339456  0.26435956  0.43528139     0.14900
N2300       N  0.14927772  0.26484210  0.37874866     0.74000
O2301       O  0.02983423  0.20936062  0.41845196    -0.39500
O2302       O  0.04072083  0.18077124  0.43080621    -0.39400
O2303       O  0.16002643  0.28908664  0.38081635    -0.40100
O2304       O  0.16329286  0.25467512  0.37658490    -0.40200
O2305       O  0.11464375  0.20595876  0.83514357    -0.82000
C2306       C  0.14019970  0.23981275  0.71337730     0.97400
O2307       O  0.12781096  0.24636454  0.73143669    -0.71100
O2308       O  0.08644252  0.20820502  0.75578577    -0.74700
Al2309     Al  0.11582321  0.23651226  0.77305786     1.49000
C2310       C  0.07253127  0.18671451  0.76844091     0.92600
O2311       O  0.11983453  0.16981067  0.76636436    -0.80900
O2312       O  0.17783222  0.23299259  0.80540836    -0.74500
Al2313     Al  0.11719253  0.18932457  0.79987097     1.90100
O2314       O  0.16062950  0.19833481  0.75719884    -0.73600
O2315       O  0.17571753  0.26757718  0.76879505    -0.73400
O2316       O  0.15403639  0.23100488  0.72366101    -0.79100
O2317       O  0.14226764  0.26717330  0.78943728    -0.77300
O2318       O  0.13236939  0.21906628  0.77893343    -1.13400
O2319       O  0.10113593  0.23041449  0.81379704    -0.72600
C2320       C  0.10631769  0.22148817  0.83735106     0.98100
C2321       C  0.14172817  0.17550083  0.75526300     0.94500
Al2322     Al  0.16448413  0.23147158  0.76486848     1.55600
O2323       O  0.08193799  0.17831893  0.78817990    -0.77200
C2324       C  0.16555165  0.27925417  0.78153106     0.98700
C2325       C  0.16908812  0.21366534  0.82320521     0.93600
O2326       O  0.14802315  0.19343306  0.81746197    -0.82500
O2327       O  0.24703617  0.46847302  0.74572570    -0.82000
C2328       C  0.23191407  0.42947095  0.86502932     0.97400
O2329       O  0.21353698  0.42376055  0.84649167    -0.71100
O2330       O  0.21320432  0.46307537  0.82112007    -0.74700
Al2331     Al  0.21383732  0.43449200  0.80452022     1.49000
C2332       C  0.22388859  0.48577288  0.81106948     0.92600
O2333       O  0.28829632  0.49857744  0.81604010    -0.80900
O2334       O  0.27819904  0.43388749  0.77600902    -0.74500
Al2335     Al  0.26584320  0.48139842  0.78174947     1.90100
O2336       O  0.29577845  0.46689083  0.82415596    -0.73600
O2337       O  0.23920684  0.40075349  0.81110734    -0.73400
O2338       O  0.25454741  0.43698362  0.85550044    -0.79100
O2339       O  0.20833585  0.40301253  0.78794961    -0.77300
O2340       O  0.24819535  0.45066528  0.80067584    -1.13400
O2341       O  0.20814648  0.44235488  0.76379163    -0.72600
C2342       C  0.22320553  0.45408612  0.74159268     0.98100
C2343       C  0.30295407  0.49057607  0.82584661     0.94500
Al2344     Al  0.26535683  0.43584243  0.81551496     1.55600
O2345       O  0.24399243  0.49475933  0.79467576    -0.77200
C2346       C  0.21815674  0.38996089  0.79700432     0.98700
C2347       C  0.29205148  0.45388538  0.76012297     0.93600
O2348       O  0.29085233  0.47428453  0.76358261    -0.82500
O2349       O  0.54558167  0.41615420  0.57997264    -0.82000
C2350       C  0.52325032  0.43084787  0.70005710     0.97400
O2351       O  0.53295238  0.44893961  0.68040600    -0.71100
O2352       O  0.57413236  0.45301459  0.65459627    -0.74700
Al2353     Al  0.54320795  0.44857224  0.63827350     1.49000
C2354       C  0.58792712  0.44432714  0.64440051     0.92600
O2355       O  0.54268615  0.37904282  0.65203966    -0.80900
O2356       O  0.48165160  0.37912678  0.61458743    -0.74500
Al2357     Al  0.54363599  0.39907394  0.61686431     1.90100
O2358       O  0.50233967  0.36661511  0.66308314    -0.73600
O2359       O  0.48410722  0.41769179  0.64734138    -0.73400
O2360       O  0.50971737  0.40762104  0.69186296    -0.79100
O2361       O  0.51470461  0.44958703  0.62166193    -0.77300
O2362       O  0.52817062  0.41417673  0.63608166    -1.13400
O2363       O  0.55637496  0.45477606  0.59712018    -0.72600
C2364       C  0.55272448  0.43955787  0.57514843     0.98100
C2365       C  0.52155459  0.36325948  0.66490585     0.94500
Al2366     Al  0.49708465  0.39453373  0.65286193     1.55600
O2367       O  0.57852460  0.42452179  0.62759434    -0.77200
C2368       C  0.49185270  0.43773183  0.63126281     0.98700
C2369       C  0.48932417  0.36641697  0.59898355     0.93600
O2370       O  0.51226257  0.37071734  0.60132407    -0.82500
O2371       O  0.42371231  0.55680341  0.67199324    -0.82000
C2372       C  0.42572501  0.52460226  0.55660811     0.97400
O2373       O  0.43974507  0.54383536  0.57337195    -0.71100
O2374       O  0.44988998  0.57691854  0.61861989    -0.74700
Al2375     Al  0.44381042  0.54256122  0.61609705     1.49000
C2376       C  0.43549911  0.58644108  0.61494284     0.92600
O2377       O  0.36519491  0.52945747  0.61867282    -0.80900
O2378       O  0.36750432  0.48071384  0.64163370    -0.74500
Al2379     Al  0.39599789  0.54193078  0.64282326     1.90100
O2380       O  0.36719815  0.50267853  0.58627194    -0.73600
O2381       O  0.40993979  0.48105391  0.62474053    -0.73400
O2382       O  0.40900585  0.50297500  0.56792628    -0.79100
O2383       O  0.44751788  0.51313935  0.61167021    -0.77300
O2384       O  0.40965256  0.52617340  0.62176983    -1.13400
O2385       O  0.44978780  0.54223062  0.65898834    -0.72600
C2386       C  0.44161646  0.55206406  0.67871590     0.98100
C2387       C  0.35622154  0.51464825  0.59579127     0.94500
Al2388     Al  0.39012164  0.49454544  0.60648001     1.55600
O2389       O  0.41131978  0.57224580  0.61709764    -0.77200
C2390       C  0.43357608  0.48995209  0.61946040     0.98700
C2391       C  0.36668397  0.49051578  0.66703151     0.93600
O2392       O  0.37941999  0.51455744  0.67106297    -0.82500
O2393       O  0.19500029  0.12357286  0.90666524    -0.82000
C2394       C  0.23158173  0.14610602  0.52766138     0.97400
O2395       O  0.23903238  0.13546765  0.50814093    -0.71100
O2396       O  0.20239527  0.09408265  0.98164179    -0.74700
Al2397     Al  0.22920886  0.12519450  0.96515411     1.49000
C2398       C  0.18008278  0.08030031  0.97119742     0.92600
O2399       O  0.16153369  0.12602885  0.97932257    -0.80900
O2400       O  0.22200722  0.18726741  0.93985334    -0.74500
Al2401     Al  0.17989989  0.12524436  0.94372784     1.90100
O2402       O  0.18853527  0.16684235  0.98936248    -0.73600
O2403       O  0.25839387  0.18476414  0.97300595    -0.73400
O2404       O  0.22344083  0.16104601  0.51958915    -0.79100
O2405       O  0.25899614  0.15337124  0.94873965    -0.77300
O2406       O  0.21036531  0.14067581  0.96259099    -1.13400
O2407       O  0.22251768  0.11243215  0.92390445    -0.72600
C2408       C  0.21126375  0.11643355  0.90181900     0.98100
C2409       C  0.16641319  0.14697448  0.99206829     0.94500
Al2410     Al  0.22198169  0.17203393  0.97870361     1.55600
O2411       O  0.17009016  0.09002287  0.95422205    -0.77200
C2412       C  0.27062152  0.17619024  0.95809985     0.98700
C2413       C  0.20142947  0.17944962  0.92470845     0.93600
O2414       O  0.18274714  0.15662777  0.92814489    -0.82500
O2415       O  0.46067442  0.25092923  0.50730387    -0.82000
C2416       C  0.42635546  0.23873454  0.88905772     0.97400
O2417       O  0.42854610  0.22299898  0.90659610    -0.71100
O2418       O  0.45073570  0.21183105  0.95195365    -0.74700
Al2419     Al  0.42380667  0.21997494  0.94945373     1.49000
C2420       C  0.47449555  0.22492727  0.94613359     0.92600
O2421       O  0.49262565  0.29677859  0.94876254    -0.80900
O2422       O  0.43904148  0.29501799  0.97536851    -0.74500
Al2423     Al  0.47301955  0.26661649  0.97322884     1.90100
O2424       O  0.46366531  0.29869326  0.92073255    -0.73600
O2425       O  0.39732305  0.25527897  0.95408680    -0.73400
O2426       O  0.42399367  0.25740922  0.89936398    -0.79100
O2427       O  0.39133843  0.21715307  0.94510415    -0.77300
O2428       O  0.44304670  0.25418949  0.95363958    -1.13400
O2429       O  0.41802559  0.21560037  0.99278930    -0.72600
C2430       C  0.44207727  0.22853465  0.51212851     0.98100
C2431       C  0.48682822  0.30784578  0.92839590     0.94500
Al2432     Al  0.43197105  0.27474167  0.93863678     1.55600
O2433       O  0.48571047  0.24925827  0.94707856    -0.77200
C2434       C  0.38227047  0.23160994  0.95030028     0.98700
C2435       C  0.45140557  0.29625008  0.99941306     0.93600
O2436       O  0.46440623  0.28495246  0.00112164    -0.82500
O2437       O  0.51227677  0.13441780  0.83417439    -0.82000
C2438       C  0.52186773  0.09761814  0.94658633     0.97400
O2439       O  0.49984643  0.09147557  0.93575950    -0.71100
O2440       O  0.49868267  0.13303497  0.91863941    -0.74700
Al2441     Al  0.49137676  0.10209301  0.89782933     1.49000
C2442       C  0.51092950  0.15610896  0.90932640     0.92600
O2443       O  0.56896077  0.15919928  0.88883767    -0.80900
O2444       O  0.53840548  0.09124660  0.84461230    -0.74500
Al2445     Al  0.53924796  0.14473212  0.86230158     1.90100
O2446       O  0.57409624  0.12580109  0.88446370    -0.73600
O2447       O  0.51085863  0.06418669  0.89220724    -0.73400
O2448       O  0.54111515  0.10292653  0.92962302    -0.79100
O2449       O  0.47854596  0.06871736  0.87868182    -0.77300
O2450       O  0.52318276  0.11494847  0.88254725    -1.13400
O2451       O  0.47807486  0.11121959  0.86332799    -0.72600
C2452       C  0.48823276  0.12287581  0.83851854     0.98100
C2453       C  0.58266329  0.14883410  0.89258315     0.94500
Al2454     Al  0.53969287  0.09744318  0.88732889     1.55600
O2455       O  0.52626681  0.16216449  0.88682643    -0.77200
C2456       C  0.48824204  0.05442194  0.88250770     0.98700
C2457       C  0.54785411  0.10937028  0.82509308     0.93600
O2458       O  0.55455219  0.13244706  0.83253529    -0.82500
O2459       O  0.38160624  0.86728090  0.92026871    -0.82000
C2460       C  0.42651884  0.89705087  0.80492956     0.97400
O2461       O  0.41020160  0.90309478  0.81467903    -0.71100
O2462       O  0.36930036  0.86104554  0.83399317    -0.74700
Al2463     Al  0.39089426  0.89349625  0.85271802     1.49000
C2464       C  0.35859620  0.83903021  0.84633570     0.92600
O2465       O  0.41418536  0.83908857  0.87106996    -0.80900
O2466       O  0.45086997  0.91020225  0.90751539    -0.74500
Al2467     Al  0.39829383  0.85517401  0.89422782     1.90100
O2468       O  0.45201974  0.87395025  0.87072935    -0.73600
O2469       O  0.44747360  0.93381771  0.85765217    -0.73400
O2470       O  0.44079879  0.89333171  0.82307737    -0.79100
O2471       O  0.40948629  0.92795939  0.86906743    -0.77300
O2472       O  0.41109878  0.88321593  0.87068265    -1.13400
O2473       O  0.36773882  0.88515624  0.88694907    -0.72600
C2474       C  0.36757527  0.87670023  0.91359786     0.98100
C2475       C  0.43848031  0.84970954  0.86918771     0.94500
Al2476     Al  0.44497567  0.90140101  0.86505517     1.55600
O2477       O  0.36759250  0.83525636  0.87074632    -0.77200
C2478       C  0.43332131  0.94300002  0.86503246     0.98700
C2479       C  0.44345961  0.89315523  0.92839236     0.93600
O2480       O  0.42602891  0.87000952  0.92320608    -0.82500
O2481       O  0.19426881  0.04948731  0.66927240    -0.82000
C2482       C  0.23527466  0.10358484  0.77686913     0.97400
O2483       O  0.23693666  0.08396402  0.76954196    -0.71100
O2484       O  0.19435526  0.04203025  0.75511522    -0.74700
Al2485     Al  0.22588037  0.06283081  0.73345486     1.49000
C2486       C  0.17162003  0.03133079  0.74524643     0.92600
O2487       O  0.17215565  0.08698985  0.71871453    -0.80900
O2488       O  0.23749501  0.11839064  0.67037507    -0.74500
Al2489     Al  0.18490901  0.06859454  0.69484756     1.90100
O2490       O  0.20749630  0.12421097  0.71350940    -0.73600
O2491       O  0.26745202  0.11899646  0.71399097    -0.73400
O2492       O  0.23376914  0.11796920  0.75669880    -0.79100
O2493       O  0.25972109  0.07941374  0.71556091    -0.77300
O2494       O  0.21526050  0.08256904  0.71419959    -1.13400
O2495       O  0.21604269  0.03836202  0.70064058    -0.72600
C2496       C  0.20533803  0.03672472  0.67511047     0.98100
C2497       C  0.18358445  0.11139635  0.71872423     0.94500
Al2498     Al  0.23496150  0.11686416  0.71385361     1.55600
O2499       O  0.16659664  0.03991275  0.72150513    -0.77200
C2500       C  0.27516294  0.10308925  0.71164169     0.98700
C2501       C  0.21825494  0.11018165  0.65279444     0.93600
O2502       O  0.19604661  0.09359020  0.66224684    -0.82500
O2503       O  0.46373756  0.18367676  0.75035680    -0.82000
C2504       C  0.42923091  0.19894123  0.63907027     0.97400
O2505       O  0.42343185  0.17656838  0.64838415    -0.71100
O2506       O  0.46629496  0.17856801  0.66374276    -0.74700
Al2507     Al  0.43492620  0.16700936  0.68485446     1.49000
C2508       C  0.48886565  0.18921011  0.67428989     0.92600
O2509       O  0.48922507  0.24417166  0.70174482    -0.80900
O2510       O  0.41984183  0.20921053  0.74320104    -0.74500
Al2511     Al  0.47464272  0.21248824  0.72489067     1.90100
O2512       O  0.45448334  0.24730343  0.70509740    -0.73600
O2513       O  0.39405870  0.18213554  0.69415885    -0.73400
O2514       O  0.43342107  0.21687892  0.65759996    -0.79100
O2515       O  0.40146531  0.15070954  0.70394012    -0.77300
O2516       O  0.44561654  0.19721225  0.70335628    -1.13400
O2517       O  0.44494766  0.15212253  0.71696820    -0.72600
C2518       C  0.45413643  0.16027638  0.74325123     0.98100
C2519       C  0.47859159  0.25787557  0.70143360     0.94500
Al2520     Al  0.42687752  0.21255884  0.70020756     1.55600
O2521       O  0.49407489  0.20188509  0.69901141    -0.77200
C2522       C  0.38576524  0.15868293  0.70038612     0.98700
C2523       C  0.43771427  0.21903093  0.76291911     0.93600
O2524       O  0.46077999  0.22522183  0.75599191    -0.82500
O2525       O  0.14909724  0.96564362  0.57505378    -0.82000
C2526       C  0.14046387  0.90643418  0.97417952     0.97400
O2527       O  0.15410770  0.92998963  0.98137798    -0.71100
O2528       O  0.16267398  0.97196974  0.01098641    -0.74700
Al2529     Al  0.16484955  0.94522888  0.51952473     1.49000
C2530       C  0.14104931  0.97770864  0.51182431     0.92600
O2531       O  0.08301800  0.91401875  0.54381645    -0.80900
O2532       O  0.10692964  0.88314364  0.57556715    -0.74500
Al2533     Al  0.11779693  0.93902276  0.55720712     1.90100
O2534       O  0.08848805  0.88502296  0.51954401    -0.73600
O2535       O  0.14939975  0.89115084  0.55054504    -0.73400
O2536       O  0.13137514  0.88882800  0.99450433    -0.79100
O2537       O  0.17861729  0.92192018  0.52240714    -0.77300
O2538       O  0.13390974  0.92493225  0.53714650    -1.13400
O2539       O  0.18037891  0.95923539  0.55773502    -0.72600
C2540       C  0.17193096  0.96941373  0.57649013     0.98100
C2541       C  0.07398230  0.89328858  0.52849391     0.94500
Al2542     Al  0.12001283  0.89077628  0.53469298     1.55600
O2543       O  0.11994086  0.96115688  0.52395354    -0.77200
C2544       C  0.17173836  0.90237977  0.53927200     0.98700
C2545       C  0.10780432  0.89714250  0.59757243     0.93600
O2546       O  0.11395309  0.92032165  0.59355564    -0.82500
O2547       O  0.27599158  0.81983207  0.50108339    -0.82000
C2548       C  0.23478422  0.80994065  0.61905377     0.97400
O2549       O  0.25197159  0.83122572  0.60767544    -0.71100
O2550       O  0.29172184  0.82895355  0.58635943    -0.74700
Al2551     Al  0.26947459  0.83927329  0.56855653     1.49000
C2552       C  0.30262229  0.81808718  0.57330258     0.92600
O2553       O  0.24548612  0.76151513  0.55484897    -0.80900
O2554       O  0.20738079  0.79416337  0.51713791    -0.74500
Al2555     Al  0.26023651  0.79205362  0.52919964     1.90100
O2556       O  0.20745403  0.75831343  0.55665630    -0.73600
O2557       O  0.21231507  0.82353379  0.56530329    -0.73400
O2558       O  0.21948766  0.79127408  0.60232881    -0.79100
O2559       O  0.25047109  0.85483093  0.55254268    -0.77300
O2560       O  0.24835134  0.80830884  0.55261036    -1.13400
O2561       O  0.29141753  0.85250645  0.53325933    -0.72600
C2562       C  0.29126945  0.84325175  0.50717547     0.98100
C2563       C  0.22131845  0.74792852  0.55853795     0.94500
Al2564     Al  0.21451729  0.79314140  0.55981526     1.55600
O2565       O  0.29231985  0.80398475  0.55021808    -0.77200
C2566       C  0.22691723  0.84676050  0.55794781     0.98700
C2567       C  0.21657502  0.77938655  0.99609355     0.93600
O2568       O  0.23373249  0.77358933  0.00219958    -0.82500
O2569       O  0.22496761  0.76510615  0.75254747    -0.82000
C2570       C  0.19122550  0.76428912  0.86814096     0.97400
O2571       O  0.21082681  0.77850847  0.85178476    -0.71100
O2572       O  0.24465433  0.78945222  0.80692843    -0.74700
Al2573     Al  0.21033239  0.78404490  0.80921770     1.49000
C2574       C  0.25328088  0.77431417  0.81089826     0.92600
O2575       O  0.19493082  0.70469775  0.80396966    -0.80900
O2576       O  0.14789537  0.70909882  0.78172526    -0.74500
Al2577     Al  0.20882269  0.73643122  0.78083287     1.90100
O2578       O  0.16862378  0.70734299  0.83677078    -0.73600
O2579       O  0.14888328  0.75200445  0.79893966    -0.73400
O2580       O  0.16951573  0.74876477  0.85622571    -0.79100
O2581       O  0.18121045  0.78860340  0.81355993    -0.77300
O2582       O  0.19332661  0.75014709  0.80233769    -1.13400
O2583       O  0.21066769  0.79120953  0.76672347    -0.72600
C2584       C  0.22026979  0.78318632  0.74656814     0.98100
C2585       C  0.17965726  0.69563695  0.82663410     0.94500
Al2586     Al  0.16140337  0.73099376  0.81710073     1.55600
O2587       O  0.23861512  0.75031740  0.80736264    -0.77200
C2588       C  0.15832171  0.77572394  0.80426310     0.98700
C2589       C  0.15769536  0.70810391  0.75635339     0.93600
O2590       O  0.18174309  0.72103445  0.75183387    -0.82500
O2591       O  0.08180493  0.88123768  0.84755243    -0.82000
C2592       C  0.09282381  0.86476359  0.72367795     0.97400
O2593       O  0.11125459  0.87529701  0.74241648    -0.71100
O2594       O  0.11213710  0.91440806  0.76923393    -0.74700
Al2595     Al  0.11199704  0.88480383  0.78449254     1.49000
C2596       C  0.10390390  0.92719441  0.78330589     0.92600
O2597       O  0.04112076  0.88062484  0.78090611    -0.80900
O2598       O  0.04451298  0.81935393  0.81052616    -0.74500
Al2599     Al  0.06270917  0.88074387  0.81322759     1.90100
O2600       O  0.02975284  0.84140184  0.76510995    -0.73600
O2601       O  0.08387065  0.82530839  0.77597229    -0.73400
O2602       O  0.07009813  0.85027074  0.73313351    -0.79100
O2603       O  0.11638908  0.85753951  0.79882849    -0.77300
O2604       O  0.07781312  0.86739032  0.78999402    -1.13400
O2605       O  0.12005707  0.89802511  0.82570845    -0.72600
C2606       C  0.10595664  0.89108564  0.84949781     0.98100
C2607       C  0.02572678  0.86030467  0.76655801     0.94500
Al2608     Al  0.05873787  0.83663800  0.77256206     1.55600
O2609       O  0.08672030  0.91670146  0.80384726    -0.77200
C2610       C  0.10517993  0.83448300  0.78992257     0.98700
C2611       C  0.03180274  0.82564143  0.82814414     0.93600
O2612       O  0.03552999  0.84837616  0.82823442    -0.82500
O2613       O  0.86819110  0.45512507  0.57716061    -0.82000
C2614       C  0.90045991  0.47922858  0.69957219     0.97400
O2615       O  0.90685752  0.46740697  0.68055374    -0.71100
O2616       O  0.86782904  0.42687776  0.65723832    -0.74700
Al2617     Al  0.89689349  0.45544151  0.63970320     1.49000
C2618       C  0.84593239  0.41342632  0.64534994     0.92600
O2619       O  0.83110726  0.46094383  0.64455569    -0.80900
O2620       O  0.89526769  0.51950171  0.60907247    -0.74500
Al2621     Al  0.85109301  0.45826852  0.61197485     1.90100
O2622       O  0.85951334  0.50104660  0.65653240    -0.73600
O2623       O  0.92868028  0.51481586  0.64539744    -0.73400
O2624       O  0.89139637  0.49314036  0.69039285    -0.79100
O2625       O  0.92828674  0.48178658  0.62336011    -0.77300
O2626       O  0.88022029  0.47272503  0.63371322    -1.13400
O2627       O  0.89059529  0.43984942  0.59954283    -0.72600
C2628       C  0.88261339  0.44539640  0.57552787     0.98100
C2629       C  0.83662653  0.48214483  0.65713847     0.94500
Al2630     Al  0.89268841  0.50455316  0.64903279     1.55600
O2631       O  0.83859996  0.42282989  0.62438052    -0.77200
C2632       C  0.94054366  0.50467337  0.63281668     0.98700
C2633       C  0.87667814  0.51140312  0.59041854     0.93600
O2634       O  0.85667013  0.48963371  0.59418241    -0.82500
O2635       O  0.12867371  0.58532302  0.67560187    -0.82000
C2636       C  0.09131999  0.57426916  0.55438895     0.97400
O2637       O  0.08549977  0.55578313  0.57288313    -0.71100
O2638       O  0.12377098  0.55333785  0.59766524    -0.74700
Al2639     Al  0.09545557  0.55485748  0.61480547     1.49000
C2640       C  0.14615933  0.56279078  0.60821772     0.92600
O2641       O  0.16146739  0.62669324  0.60497119    -0.80900
O2642       O  0.09949914  0.62227849  0.64473329    -0.74500
Al2643     Al  0.14321344  0.60469709  0.63925445     1.90100
O2644       O  0.13232601  0.63766030  0.59500939    -0.73600
O2645       O  0.06401406  0.58362115  0.61090086    -0.73400
O2646       O  0.09941732  0.59692814  0.56421205    -0.79100
O2647       O  0.06430172  0.55043909  0.63101221    -0.77300
O2648       O  0.11279588  0.58918071  0.61966943    -1.13400
O2649       O  0.10185060  0.54732313  0.65589036    -0.72600
C2650       C  0.11308569  0.56149505  0.67879494     0.98100
C2651       C  0.15520796  0.64201756  0.59279762     0.94500
Al2652     Al  0.09985563  0.60835000  0.60500726     1.55600
O2653       O  0.15492676  0.58164125  0.62634113    -0.77200
C2654       C  0.05224212  0.56175201  0.62350968     0.98700
C2655       C  0.11927266  0.63393562  0.66153722     0.93600
O2656       O  0.13854331  0.63096455  0.65767980    -0.82500
O2657       O  0.78630054  0.53850687  0.50848399    -0.82000
C2658       C  0.81151505  0.57647829  0.88627758     0.97400
O2659       O  0.79962242  0.58299344  0.90515389    -0.71100
O2660       O  0.75854523  0.54497824  0.93002166    -0.74700
Al2661     Al  0.78875000  0.57223985  0.94702119     1.49000
C2662       C  0.74491089  0.52285478  0.94126795     0.92600
O2663       O  0.79169760  0.50549495  0.93365265    -0.80900
O2664       O  0.85124577  0.56576612  0.97423423    -0.74500
Al2665     Al  0.78978773  0.52346402  0.96917855     1.90100
O2666       O  0.83239505  0.53362497  0.92392214    -0.73600
O2667       O  0.84867964  0.60234063  0.94191316    -0.73400
O2668       O  0.82586634  0.56800743  0.89544302    -0.79100
O2669       O  0.81591117  0.60237183  0.96388728    -0.77300
O2670       O  0.80502469  0.55409950  0.95029894    -1.13400
O2671       O  0.77499569  0.56493394  0.98808595    -0.72600
C2672       C  0.77713624  0.55332597  0.51198391     0.98100
C2673       C  0.81312397  0.51114931  0.92124133     0.94500
Al2674     Al  0.83687416  0.56653956  0.93513201     1.55600
O2675       O  0.75475852  0.51320359  0.95849894    -0.77200
C2676       C  0.83920054  0.61403593  0.95608710     0.98700
C2677       C  0.84338667  0.54488783  0.98892610     0.93600
O2678       O  0.82074224  0.52628276  0.98511474    -0.82500
O2679       O  0.90221739  0.80199566  0.91630896    -0.82000
C2680       C  0.89716569  0.76766161  0.53163812     0.97400
O2681       O  0.88296907  0.77266011  0.51489355    -0.71100
O2682       O  0.87703262  0.79688765  0.96975638    -0.74700
Al2683     Al  0.88166839  0.76747287  0.97159642     1.49000
C2684       C  0.89225131  0.82083805  0.97247466     0.92600
O2685       O  0.96180994  0.83122762  0.96691887    -0.80900
O2686       O  0.95787378  0.78068981  0.94699472    -0.74500
Al2687     Al  0.93019819  0.81363239  0.94424176     1.90100
O2688       O  0.95790620  0.80322949  0.00179733    -0.73600
O2689       O  0.91510697  0.73922659  0.96288281    -0.73400
O2690       O  0.91351394  0.76222723  0.52050561    -0.79100
O2691       O  0.87727751  0.73376223  0.97510997    -0.77300
O2692       O  0.91585868  0.78454205  0.96587717    -1.13400
O2693       O  0.87522046  0.76153288  0.92872852    -0.72600
C2694       C  0.88373266  0.77983477  0.90943441     0.98100
C2695       C  0.97032849  0.82556892  0.99032169     0.94500
Al2696     Al  0.93500541  0.77214028  0.98149681     1.55600
O2697       O  0.91636155  0.82997697  0.97006506    -0.77200
C2698       C  0.89131241  0.72458688  0.96717892     0.98700
C2699       C  0.95809482  0.78999350  0.92092939     0.93600
O2700       O  0.94499282  0.80084768  0.91592755    -0.82500
O2701       O  0.85174248  0.80733970  0.66789830    -0.82000
C2702       C  0.85907035  0.76972628  0.78172625     0.97400
O2703       O  0.83762258  0.76500377  0.77052426    -0.71100
O2704       O  0.83891255  0.80778056  0.75341065    -0.74700
Al2705     Al  0.83026383  0.77644759  0.73259457     1.49000
C2706       C  0.85075797  0.83039612  0.74269818     0.92600
O2707       O  0.90838179  0.83252463  0.72320413    -0.80900
O2708       O  0.87853689  0.76498465  0.67893705    -0.74500
Al2709     Al  0.87862736  0.81791438  0.69667959     1.90100
O2710       O  0.91274684  0.79844998  0.72109576    -0.73600
O2711       O  0.84808260  0.73707242  0.72496713    -0.73400
O2712       O  0.87830967  0.77446063  0.76497712    -0.79100
O2713       O  0.81583787  0.74273184  0.71411145    -0.77300
O2714       O  0.86209500  0.78823138  0.71720173    -1.13400
O2715       O  0.81765532  0.78637255  0.69786415    -0.72600
C2716       C  0.82777528  0.79712197  0.67257538     0.98100
C2717       C  0.92250480  0.82241680  0.72511278     0.94500
Al2718     Al  0.87800069  0.77012254  0.72219339     1.55600
O2719       O  0.86562519  0.83564114  0.71995421    -0.77200
C2720       C  0.82471189  0.72774719  0.71796535     0.98700
C2721       C  0.88884811  0.78356558  0.65992364     0.93600
O2722       O  0.89453729  0.80608595  0.66802371    -0.82500
O2723       O  0.72025212  0.54033617  0.75561358    -0.82000
C2724       C  0.76192137  0.57258739  0.63784119     0.97400
O2725       O  0.74401711  0.57606160  0.64837382    -0.71100
O2726       O  0.70372074  0.53443578  0.66984676    -0.74700
Al2727     Al  0.72638019  0.56674978  0.68801956     1.49000
C2728       C  0.69234678  0.51262440  0.68270677     0.92600
O2729       O  0.74752311  0.51140243  0.69940173    -0.80900
O2730       O  0.78748825  0.58048449  0.74028870    -0.74500
Al2731     Al  0.73433186  0.52744411  0.72671940     1.90100
O2732       O  0.78632711  0.54540116  0.69841440    -0.73600
O2733       O  0.78417818  0.60724860  0.69503830    -0.73400
O2734       O  0.77658294  0.56931625  0.65570319    -0.79100
O2735       O  0.74575585  0.60126233  0.70408350    -0.77300
O2736       O  0.74694345  0.55613402  0.70405611    -1.13400
O2737       O  0.70485384  0.55835530  0.72427821    -0.72600
C2738       C  0.70572234  0.54957122  0.75051213     0.98100
C2739       C  0.77151175  0.52143976  0.69474752     0.94500
Al2740     Al  0.78078287  0.57415488  0.69777095     1.55600
O2741       O  0.70188266  0.50864012  0.70634918    -0.77200
C2742       C  0.76983455  0.61613221  0.70240748     0.98700
C2743       C  0.78078474  0.56273928  0.75993043     0.93600
O2744       O  0.76365613  0.53978264  0.75375372    -0.82500
O2745       O  0.61609162  0.48484852  0.83765137    -0.82000
C2746       C  0.56760156  0.47601910  0.95019847     0.97400
O2747       O  0.58773475  0.49631389  0.94163048    -0.71100
O2748       O  0.62546211  0.48964887  0.92487385    -0.74700
Al2749     Al  0.60774258  0.50403884  0.90475251     1.49000
C2750       C  0.63732126  0.47974467  0.91213511     0.92600
O2751       O  0.57922604  0.42606042  0.89005488    -0.80900
O2752       O  0.54907818  0.46300462  0.84462167    -0.74500
Al2753     Al  0.59766390  0.45673678  0.86469936     1.90100
O2754       O  0.54294872  0.42667212  0.88773392    -0.73600
O2755       O  0.55281413  0.49397943  0.88941959    -0.73400
O2756       O  0.55240431  0.45995482  0.93086250    -0.79100
O2757       O  0.59351700  0.52366874  0.88791202    -0.77300
O2758       O  0.58596975  0.47448362  0.88594922    -1.13400
O2759       O  0.63176673  0.51675820  0.87121971    -0.72600
C2760       C  0.63124386  0.50820898  0.84450574     0.98100
C2761       C  0.55474512  0.41439113  0.89212703     0.94500
Al2762     Al  0.55215043  0.46205636  0.88809800     1.55600
O2763       O  0.62849879  0.46690072  0.88792027    -0.77200
C2764       C  0.57006674  0.51715767  0.88625854     0.98700
C2765       C  0.55534056  0.45056076  0.82645346     0.93600
O2766       O  0.57072496  0.44313339  0.83491914    -0.82500
O2767       O  0.47787624  0.61079809  0.92171195    -0.82000
C2768       C  0.47251861  0.56964134  0.80540668     0.97400
O2769       O  0.49312094  0.58855783  0.81570403    -0.71100
O2770       O  0.48596104  0.62557390  0.83545530    -0.74700
Al2771     Al  0.49965723  0.60665595  0.85434913     1.49000
C2772       C  0.47400295  0.63545272  0.84811088     0.92600
O2773       O  0.42171276  0.57643560  0.86690132    -0.80900
O2774       O  0.45898968  0.54452819  0.90891581    -0.74500
Al2775     Al  0.45107174  0.59346780  0.89347684     1.90100
O2776       O  0.42215673  0.54012792  0.86796889    -0.73600
O2777       O  0.49005873  0.55140232  0.86104309    -0.73400
O2778       O  0.45525702  0.55335107  0.82306607    -0.79100
O2779       O  0.51852854  0.59143971  0.87088132    -0.77300
O2780       O  0.46971321  0.58364396  0.87113194    -1.13400
O2781       O  0.51085390  0.62884753  0.88953824    -0.72600
C2782       C  0.50112227  0.62709836  0.91594336     0.98100
C2783       C  0.41032006  0.55226252  0.86282586     0.94500
Al2784     Al  0.45771415  0.55010511  0.86570150     1.55600
O2785       O  0.46089212  0.62528803  0.87206578    -0.77200
C2786       C  0.51288948  0.56838493  0.86695609     0.98700
C2787       C  0.44586971  0.54928402  0.92804846     0.93600
O2788       O  0.43774265  0.56457900  0.92120849    -0.82500
O2789       O  0.53188494  0.71901455  0.00227701    -0.82000
C2790       C  0.56279791  0.75994294  0.61765884     0.97400
O2791       O  0.56552642  0.74154659  0.60757415    -0.71100
O2792       O  0.52384814  0.70163311  0.58731171    -0.74700
Al2793     Al  0.55643420  0.72358680  0.56902296     1.49000
C2794       C  0.50175451  0.69100058  0.57538970     0.92600
O2795       O  0.50321487  0.74829006  0.55542422    -0.80900
O2796       O  0.57247488  0.78407263  0.51401216    -0.74500
Al2797     Al  0.51789277  0.73251072  0.52987356     1.90100
O2798       O  0.53862687  0.78593146  0.55491783    -0.73600
O2799       O  0.59847128  0.78055206  0.56096008    -0.73400
O2800       O  0.56081115  0.77555121  0.59989327    -0.79100
O2801       O  0.59148213  0.74174915  0.55310073    -0.77300
O2802       O  0.54672414  0.74464796  0.55211537    -1.13400
O2803       O  0.54794427  0.70173843  0.53415276    -0.72600
C2804       C  0.53851470  0.70167574  0.50826377     0.98100
C2805       C  0.51443960  0.77257013  0.55797966     0.94500
Al2806     Al  0.56601856  0.77861545  0.55707672     1.55600
O2807       O  0.49773869  0.70099974  0.55217720    -0.77200
C2808       C  0.60708322  0.76557628  0.55576381     0.98700
C2809       C  0.55900142  0.78072372  0.99490360     0.93600
O2810       O  0.53588261  0.76452817  0.00205886    -0.82500
O2811       O  0.79614517  0.85574521  0.58444692    -0.82000
C2812       C  0.76179259  0.86575916  0.97072262     0.97400
O2813       O  0.76224647  0.84544888  0.97809930    -0.71100
O2814       O  0.80595799  0.85015156  0.99589576    -0.74700
Al2815     Al  0.76866040  0.83618444  0.51783212     1.49000
C2816       C  0.82308268  0.86101629  0.50974969     0.92600
O2817       O  0.81882958  0.91422756  0.53187243    -0.80900
O2818       O  0.75075574  0.87821228  0.57500959    -0.74500
Al2819     Al  0.80588727  0.88375774  0.55725436     1.90100
O2820       O  0.78230402  0.91444506  0.53294732    -0.73600
O2821       O  0.72425395  0.84750137  0.53044532    -0.73400
O2822       O  0.76114770  0.88041881  0.99098365    -0.79100
O2823       O  0.73458834  0.81758664  0.53613607    -0.77300
O2824       O  0.77685457  0.86622469  0.53560895    -1.13400
O2825       O  0.78030200  0.82363234  0.55132804    -0.72600
C2826       C  0.78909890  0.83261281  0.57762251     0.98100
C2827       C  0.80646093  0.92617186  0.52894369     0.94500
Al2828     Al  0.75590896  0.87919741  0.53210812     1.55600
O2829       O  0.82649209  0.87371578  0.53398744    -0.77200
C2830       C  0.71787294  0.82458966  0.53691605     0.98700
C2831       C  0.76877793  0.89003553  0.59390012     0.93600
O2832       O  0.79193013  0.89735615  0.58677680    -0.82500
O2833       O  0.94032882  0.15435925  0.66071417    -0.82000
C2834       C  0.90023919  0.14067271  0.77933574     0.97400
O2835       O  0.91697612  0.16252733  0.76880608    -0.71100
O2836       O  0.95748583  0.16232281  0.74521286    -0.74700
Al2837     Al  0.93387161  0.17205244  0.72934065     1.49000
C2838       C  0.96784176  0.15112322  0.73162903     0.92600
O2839       O  0.91112990  0.09482789  0.71216699    -0.80900
O2840       O  0.87159271  0.12690324  0.67747221    -0.74500
Al2841     Al  0.92534076  0.12601719  0.68785264     1.90100
O2842       O  0.87285954  0.09087489  0.71514789    -0.73600
O2843       O  0.87617417  0.15476147  0.72716828    -0.73400
O2844       O  0.88496833  0.12254743  0.76190421    -0.79100
O2845       O  0.91387435  0.18725972  0.71587054    -0.77300
O2846       O  0.91311640  0.14129202  0.71244355    -1.13400
O2847       O  0.95451594  0.18660627  0.69338470    -0.72600
C2848       C  0.95412292  0.17800079  0.66678773     0.98100
C2849       C  0.88698665  0.08079974  0.71571830     0.94500
Al2850     Al  0.87929502  0.12523292  0.71991900     1.55600
O2851       O  0.95739942  0.13764217  0.70823388    -0.77200
C2852       C  0.89016721  0.17832039  0.72114833     0.98700
C2853       C  0.87871732  0.11706752  0.65651158     0.93600
O2854       O  0.89647597  0.11185301  0.66129386    -0.82500
O2855       O  0.80126995  0.27885143  0.75270664    -0.82000
C2856       C  0.80145263  0.24198855  0.63517419     0.97400
O2857       O  0.82121381  0.26088839  0.64731092    -0.71100
O2858       O  0.81766680  0.29942262  0.67057579    -0.74700
Al2859     Al  0.82717905  0.27628782  0.68793658     1.49000
C2860       C  0.80420085  0.30802336  0.68214970     0.92600
O2861       O  0.74782335  0.24825767  0.69433525    -0.80900
O2862       O  0.78127724  0.21301398  0.73714442    -0.74500
Al2863     Al  0.77617026  0.26339630  0.72263187     1.90100
O2864       O  0.74679483  0.21123971  0.69382632    -0.73600
O2865       O  0.81312012  0.21897610  0.69218823    -0.73400
O2866       O  0.78303704  0.22525845  0.65146549    -0.79100
O2867       O  0.84335889  0.25777838  0.70337345    -0.77300
O2868       O  0.79540514  0.25358390  0.70125050    -1.13400
O2869       O  0.83743890  0.29512083  0.72626196    -0.72600
C2870       C  0.82537813  0.29307828  0.75115465     0.98100
C2871       C  0.73541236  0.22406326  0.69072797     0.94500
Al2872     Al  0.78222047  0.22003870  0.69413365     1.55600
O2873       O  0.78803153  0.29581533  0.70297487    -0.77200
C2874       C  0.83572218  0.23413690  0.70066732     0.98700
C2875       C  0.76909076  0.21877950  0.75641331     0.93600
O2876       O  0.76067965  0.23368954  0.74905352    -0.82500
O2877       O  0.04689861  0.20842106  0.58389995    -0.82000
C2878       C  0.09046381  0.23340274  0.96425085     0.97400
O2879       O  0.07277077  0.23708869  0.97464049    -0.71100
O2880       O  0.03342793  0.19546794  0.99672572    -0.74700
Al2881     Al  0.05281610  0.23143718  0.51455754     1.49000
C2882       C  0.02024689  0.17697839  0.51194767     0.92600
O2883       O  0.07719772  0.17894563  0.53218017    -0.80900
O2884       O  0.11518244  0.25026646  0.56766925    -0.74500
Al2885     Al  0.06236782  0.19523950  0.55675429     1.90100
O2886       O  0.11517431  0.21398423  0.52910494    -0.73600
O2887       O  0.11000285  0.27414162  0.51907107    -0.73400
O2888       O  0.10524176  0.23013781  0.98198213    -0.79100
O2889       O  0.07099583  0.26627265  0.52915918    -0.77300
O2890       O  0.07424285  0.22271071  0.53204671    -1.13400
O2891       O  0.03095850  0.22377109  0.54978794    -0.72600
C2892       C  0.03173620  0.21651750  0.57682585     0.98100
C2893       C  0.10137890  0.18968751  0.52807181     0.94500
Al2894     Al  0.10815382  0.24167435  0.52520874     1.55600
O2895       O  0.02998541  0.17421998  0.53626945    -0.77200
C2896       C  0.09465746  0.28211454  0.52534628     0.98700
C2897       C  0.10907422  0.23315855  0.58816883     0.93600
O2898       O  0.09145090  0.21010205  0.58358020    -0.82500
O2899       O  0.18137740  0.46848514  0.50347707    -0.82000
C2900       C  0.18914114  0.43157432  0.61701945     0.97400
O2901       O  0.16779339  0.42865525  0.60766235    -0.71100
O2902       O  0.17296196  0.47307189  0.59026084    -0.74700
Al2903     Al  0.16050273  0.44074884  0.57003849     1.49000
C2904       C  0.18475221  0.49505389  0.57785579     0.92600
O2905       O  0.23880264  0.49122930  0.55690502    -0.80900
O2906       O  0.20274962  0.42299014  0.51353351    -0.74500
Al2907     Al  0.20875481  0.47829077  0.53108684     1.90100
O2908       O  0.23961236  0.45506668  0.55465901    -0.73600
O2909       O  0.17243474  0.39666262  0.55939766    -0.73400
O2910       O  0.20620685  0.43296167  0.59872892    -0.79100
O2911       O  0.14270820  0.40706838  0.55230238    -0.77300
O2912       O  0.19093032  0.44923927  0.55266423    -1.13400
O2913       O  0.14834642  0.45172957  0.53564593    -0.72600
C2914       C  0.15785285  0.46035030  0.50932696     0.98100
C2915       C  0.25112845  0.47918828  0.55901846     0.94500
Al2916     Al  0.20406940  0.42850912  0.55643306     1.55600
O2917       O  0.19812213  0.49852372  0.55401861    -0.77200
C2918       C  0.14962731  0.39038332  0.55273295     0.98700
C2919       C  0.21601232  0.43987165  0.99292298     0.93600
O2920       O  0.22251217  0.46275961  0.00021952    -0.82500
O2921       O  0.86722723  0.38584568  0.83580700    -0.82000
C2922       C  0.90204932  0.43424770  0.95052926     0.97400
O2923       O  0.90402184  0.41528225  0.94093771    -0.71100
O2924       O  0.85972898  0.37583491  0.92383501    -0.74700
Al2925     Al  0.89235961  0.39506512  0.90377809     1.49000
C2926       C  0.83808917  0.36477604  0.91069950     0.92600
O2927       O  0.84026133  0.41989039  0.88447967    -0.80900
O2928       O  0.90957751  0.45583424  0.84584792    -0.74500
Al2929     Al  0.85551847  0.40345643  0.86143737     1.90100
O2930       O  0.87563404  0.45757458  0.88669622    -0.73600
O2931       O  0.93547284  0.45133318  0.89119466    -0.73400
O2932       O  0.89901301  0.44868024  0.93190258    -0.79100
O2933       O  0.92622357  0.41117391  0.88607944    -0.77300
O2934       O  0.88370051  0.41623586  0.88472606    -1.13400
O2935       O  0.88155230  0.36990078  0.87098278    -0.72600
C2936       C  0.87312175  0.36929885  0.84423001     0.98100
C2937       C  0.85132278  0.44404285  0.88809103     0.94500
Al2938     Al  0.90328383  0.45041656  0.88874178     1.55600
O2939       O  0.83527012  0.37325195  0.88538473    -0.77200
C2940       C  0.94235161  0.43501003  0.88534943     0.98700
C2941       C  0.89234171  0.44785142  0.82556791     0.93600
O2942       O  0.86951826  0.43037303  0.83139836    -0.82500
O2943       O  0.12836633  0.51880552  0.92186872    -0.82000
C2944       C  0.09406095  0.52948844  0.80557289     0.97400
O2945       O  0.09247642  0.50882924  0.81561492    -0.71100
O2946       O  0.13563530  0.51340989  0.83477113    -0.74700
Al2947     Al  0.10297991  0.50057989  0.85382069     1.49000
C2948       C  0.15736406  0.52409844  0.84757696     0.92600
O2949       O  0.15457982  0.57793278  0.86915894    -0.80900
O2950       O  0.08528527  0.54414340  0.91019157    -0.74500
Al2951     Al  0.13994835  0.54719514  0.89442576     1.90100
O2952       O  0.11863102  0.57932430  0.86820826    -0.73600
O2953       O  0.05960552  0.51345786  0.86399850    -0.73400
O2954       O  0.09572010  0.54672078  0.82368364    -0.79100
O2955       O  0.06849172  0.48257138  0.87038733    -0.77300
O2956       O  0.11143506  0.53065831  0.87161148    -1.13400
O2957       O  0.11270607  0.48718438  0.88814123    -0.72600
C2958       C  0.12060839  0.49554981  0.91489320     0.98100
C2959       C  0.14288542  0.59048017  0.86537930     0.94500
Al2960     Al  0.09141952  0.54462962  0.86690740     1.55600
O2961       O  0.16054792  0.53630298  0.87220664    -0.77200
C2962       C  0.05223010  0.49003132  0.86867325     0.98700
C2963       C  0.10327321  0.55600183  0.92932533     0.93600
O2964       O  0.12610603  0.56158524  0.92284590    -0.82500
O2965       O  0.79498981  0.92349103  0.84009585    -0.82000
C2966       C  0.75788586  0.90897328  0.72013374     0.97400
O2967       O  0.75139064  0.89107610  0.73959549    -0.71100
O2968       O  0.79060349  0.88959698  0.76261311    -0.74700
Al2969     Al  0.76277679  0.89138749  0.78069091     1.49000
C2970       C  0.81254848  0.89817588  0.77425868     0.92600
O2971       O  0.82961573  0.96130686  0.76854154    -0.80900
O2972       O  0.76789352  0.95979017  0.80669261    -0.74500
Al2973     Al  0.81069574  0.94118769  0.80354120     1.90100
O2974       O  0.80121493  0.97311393  0.75714989    -0.73600
O2975       O  0.73168960  0.92020633  0.77480071    -0.73400
O2976       O  0.76712255  0.93206289  0.72862891    -0.79100
O2977       O  0.73255594  0.88833666  0.79813215    -0.77300
O2978       O  0.78045576  0.92568075  0.78400514    -1.13400
O2979       O  0.77047443  0.88460726  0.82137022    -0.72600
C2980       C  0.78028814  0.89953120  0.84404361     0.98100
C2981       C  0.82396983  0.97667361  0.75531737     0.94500
Al2982     Al  0.76795383  0.94467745  0.76816708     1.55600
O2983       O  0.82119869  0.91659010  0.79306686    -0.77200
C2984       C  0.72015708  0.89891249  0.78895045     0.98700
C2985       C  0.78831356  0.97290489  0.82182738     0.93600
O2986       O  0.80721358  0.96914073  0.81906955    -0.82500
O2987       O  0.52930453  0.77005913  0.75363864    -0.82000
C2988       C  0.56784527  0.80422738  0.86673017     0.97400
O2989       O  0.56249712  0.78465820  0.85033210    -0.71100
O2990       O  0.53782140  0.75030968  0.80577139    -0.74700
Al2991     Al  0.56590359  0.78518786  0.80725128     1.49000
C2992       C  0.51410700  0.74065606  0.81137846     0.92600
O2993       O  0.49948399  0.79636784  0.81104965    -0.80900
O2994       O  0.55142357  0.84629587  0.78058564    -0.74500
Al2995     Al  0.51702617  0.78444405  0.78462948     1.90100
O2996       O  0.53025960  0.82706739  0.83773633    -0.73600
O2997       O  0.59376170  0.84625961  0.79741966    -0.73400
O2998       O  0.57111916  0.82528446  0.85515052    -0.79100
O2999       O  0.59925537  0.81436575  0.81005002    -0.77300
O3000       O  0.54763692  0.80126480  0.80298628    -1.13400
O3001       O  0.57063843  0.78570875  0.76424785    -0.72600
C3002       C  0.55215080  0.77621956  0.74539338     0.98100
C3003       C  0.50664516  0.81317851  0.83188172     0.94500
Al3004     Al  0.56058103  0.83347095  0.81659191     1.55600
O3005       O  0.50409581  0.75480506  0.81097105    -0.77200
C3006       C  0.60856780  0.83724760  0.80129624     0.98700
C3007       C  0.53788721  0.83506642  0.75721207     0.93600
O3008       O  0.52491644  0.81084701  0.75604211    -0.82500
O3009       O  0.56308996  0.12462563  0.57585721    -0.82000
C3010       C  0.56116745  0.09961217  0.69670457     0.97400
O3011       O  0.54684033  0.10299847  0.67831796    -0.71100
O3012       O  0.53624858  0.12202475  0.62939710    -0.74700
Al3013     Al  0.54382889  0.09486806  0.63601591     1.49000
C3014       C  0.55009161  0.14626168  0.63058908     0.92600
O3015       O  0.62167835  0.16277541  0.62880364    -0.80900
O3016       O  0.62343899  0.11457582  0.61781690    -0.74500
Al3017     Al  0.59079019  0.14101872  0.60516388     1.90100
O3018       O  0.61730100  0.13804082  0.66800837    -0.73600
O3019       O  0.58181847  0.07109218  0.63396140    -0.73400
O3020       O  0.57860393  0.09520606  0.68715715    -0.79100
O3021       O  0.54258568  0.06288207  0.64415937    -0.77300
O3022       O  0.57789424  0.11383843  0.63029464    -1.13400
O3023       O  0.53823793  0.08523499  0.59415842    -0.72600
C3024       C  0.54562492  0.10124086  0.57227859     0.98100
C3025       C  0.62936201  0.15956104  0.65457653     0.94500
Al3026     Al  0.59851752  0.10536122  0.65000182     1.55600
O3027       O  0.57423562  0.15689331  0.62677753    -0.77200
C3028       C  0.55822955  0.05511475  0.63830732     0.98700
C3029       C  0.62441038  0.12180847  0.59045268     0.93600
O3030       O  0.60884176  0.12863355  0.58076250    -0.82500
O3031       O  0.44618324  0.86680075  0.67140265    -0.82000
C3032       C  0.47530126  0.90440374  0.55336998     0.97400
O3033       O  0.46472464  0.91296891  0.57167194    -0.71100
O3034       O  0.42246898  0.87878732  0.59939352    -0.74700
Al3035     Al  0.45446031  0.90468933  0.61431451     1.49000
C3036       C  0.40880008  0.85543218  0.60650760     0.92600
O3037       O  0.45597995  0.83599464  0.60092934    -0.80900
O3038       O  0.51391801  0.89605685  0.64400877    -0.74500
Al3039     Al  0.45196597  0.85359934  0.63541103     1.90100
O3040       O  0.49707549  0.86330587  0.59502549    -0.73600
O3041       O  0.51433908  0.93257340  0.60680567    -0.73400
O3042       O  0.48963251  0.89592194  0.56296362    -0.79100
O3043       O  0.48310653  0.93444186  0.62967660    -0.77300
O3044       O  0.46879913  0.88475660  0.61775271    -1.13400
O3045       O  0.44194499  0.89937537  0.65573951    -0.72600
C3046       C  0.44125686  0.88457799  0.67689230     0.98100
C3047       C  0.47791298  0.84122198  0.59091502     0.94500
Al3048     Al  0.50087216  0.89610699  0.60345232     1.55600
O3049       O  0.41823268  0.84377613  0.62066267    -0.77200
C3050       C  0.50610927  0.94529920  0.62090145     0.98700
C3051       C  0.50452222  0.87558918  0.66018332     0.93600
O3052       O  0.48199575  0.85691274  0.65524511    -0.82500
O3053       O  0.89031801  0.09645990  0.91618208    -0.82000
C3054       C  0.85345553  0.10237823  0.52903077     0.97400
O3055       O  0.87270855  0.11664282  0.51216455    -0.71100
O3056       O  0.90929648  0.12306310  0.96932280    -0.74700
Al3057     Al  0.87577879  0.11868194  0.96993928     1.49000
C3058       C  0.91793073  0.10809871  0.97406155     0.92600
O3059       O  0.85981988  0.03934658  0.97104485    -0.80900
O3060       O  0.81203194  0.04615158  0.94182948    -0.74500
Al3061     Al  0.87369658  0.06945147  0.94614376     1.90100
O3062       O  0.82923498  0.03990504  0.99768881    -0.73600
O3063       O  0.81443494  0.08849978  0.96154372    -0.73400
O3064       O  0.83204585  0.08525533  0.51794509    -0.79100
O3065       O  0.84805936  0.12509325  0.97253034    -0.77300
O3066       O  0.85801276  0.08439394  0.96494694    -1.13400
O3067       O  0.87732500  0.12430284  0.92665982    -0.72600
C3068       C  0.88654931  0.11468886  0.90794225     0.98100
C3069       C  0.84224126  0.02934749  0.99099795     0.94500
Al3070     Al  0.82537688  0.06615316  0.97851218     1.55600
O3071       O  0.90308957  0.08405344  0.97282733    -0.77200
C3072       C  0.82469025  0.11236615  0.96578637     0.98700
C3073       C  0.82309843  0.04358170  0.91843229     0.93600
O3074       O  0.84724133  0.05311084  0.91745724    -0.82500
O3075       O  0.74697335  0.21554173  0.50968612    -0.82000
C3076       C  0.75177098  0.19387031  0.88508740     0.97400
O3077       O  0.77123894  0.20603828  0.90227052    -0.71100
O3078       O  0.77477008  0.24681637  0.92849743    -0.74700
Al3079     Al  0.77476165  0.21732909  0.94426702     1.49000
C3080       C  0.76692183  0.26002078  0.94235400     0.92600
O3081       O  0.70351446  0.21239151  0.94348382    -0.80900
O3082       O  0.70985056  0.15355707  0.97768437    -0.74500
Al3083     Al  0.72693726  0.21490962  0.97514963     1.90100
O3084       O  0.69156743  0.17205288  0.93283666    -0.73600
O3085       O  0.74625667  0.15749986  0.93863832    -0.73400
O3086       O  0.72957518  0.17993564  0.89649415    -0.79100
O3087       O  0.77974418  0.19053857  0.95875330    -0.77300
O3088       O  0.74103420  0.20031635  0.95225000    -1.13400
O3089       O  0.78489538  0.23185987  0.98501444    -0.72600
C3090       C  0.77099232  0.22436907  0.50932726     0.98100
C3091       C  0.68686959  0.19044941  0.93354477     0.94500
Al3092     Al  0.72105493  0.16846844  0.93751606     1.55600
O3093       O  0.74978640  0.25001552  0.96287203    -0.77200
C3094       C  0.76824144  0.16724630  0.95075238     0.98700
C3095       C  0.69925137  0.16148602  0.99660119     0.93600
O3096       O  0.70151903  0.18355839  0.99366265    -0.82500
C3097       C  0.78639710  0.11432054  0.94651745    -0.12500
C3098       C  0.80958302  0.12579353  0.96306933     0.04500
C3099       C  0.81821123  0.15029504  0.97649696    -0.07800
C3100       C  0.80419536  0.16296751  0.97239337    -0.08500
C3101       C  0.78130336  0.15188187  0.95528730    -0.03100
C3102       C  0.77228851  0.12709590  0.94243840     0.03800
N3103       N  0.74938325  0.11488556  0.92435372     0.66300
H3104       H  0.77944549  0.09558936  0.93605810     0.15200
H3105       H  0.81149231  0.18177507  0.98277494     0.14900
N3106       N  0.84085542  0.16248343  0.99510215     0.74000
O3107       O  0.75108701  0.11799549  0.89560376    -0.39500
O3108       O  0.72884859  0.09691989  0.93597803    -0.39400
O3109       O  0.86142283  0.18086467  0.98408114    -0.40100
O3110       O  0.83869056  0.15902840  0.02378941    -0.40200
C3111       C  0.64147840  0.11087109  0.54387245    -0.12500
C3112       C  0.64597179  0.12557882  0.57059371     0.04500
C3113       C  0.67049090  0.14723604  0.57527254    -0.07800
C3114       C  0.68839146  0.15634517  0.55140001    -0.08500
C3115       C  0.68280282  0.14367638  0.52310237    -0.03100
C3116       C  0.65989616  0.11971351  0.52001029     0.03800
N3117       N  0.65418984  0.10795778  0.99287528     0.66300
H3118       H  0.62345991  0.09325212  0.54107716     0.15200
H3119       H  0.70572277  0.17490256  0.55403849     0.14900
N3120       N  0.67634589  0.16236498  0.60246328     0.74000
O3121       O  0.66225546  0.09213930  0.99052567    -0.39500
O3122       O  0.63624308  0.10551597  0.97558198    -0.39400
O3123       O  0.68693098  0.15755237  0.62450411    -0.40100
O3124       O  0.67848955  0.18439038  0.60061084    -0.40200
C3125       C  0.55556801  0.01684170  0.61203150    -0.12500
C3126       C  0.54824642  0.02706642  0.63656232     0.04500
C3127       C  0.52917445  0.01008555  0.65741945    -0.07800
C3128       C  0.51690165  0.98350367  0.65265670    -0.08500
C3129       C  0.52282833  0.97319227  0.62704733    -0.03100
C3130       C  0.54281294  0.99006186  0.60689442     0.03800
N3131       N  0.54872051  0.98064964  0.57967510     0.66300
H3132       H  0.56994780  0.02971617  0.59566284     0.15200
H3133       H  0.50208811  0.97086933  0.66870151     0.14900
N3134       N  0.52174887  0.01953878  0.68341331     0.74000
O3135       O  0.53588784  0.97775300  0.55559799    -0.39500
O3136       O  0.56954626  0.98015172  0.57801064    -0.39400
O3137       O  0.50068778  0.01963380  0.68289651    -0.40100
O3138       O  0.53297146  0.02211865  0.70871648    -0.40200
C3139       C  0.53324149  0.87168580  0.73631934    -0.12500
C3140       C  0.53570046  0.84979005  0.73094493     0.04500
C3141       C  0.53198633  0.83985795  0.70073842    -0.07800
C3142       C  0.52447346  0.85070674  0.67738063    -0.08500
C3143       C  0.51996507  0.87113193  0.68322769    -0.03100
C3144       C  0.52500485  0.88214730  0.71282085     0.03800
N3145       N  0.51940419  0.90211902  0.72018561     0.66300
H3146       H  0.53560217  0.87934352  0.75933590     0.15200
H3147       H  0.52039293  0.84188917  0.65484699     0.14900
N3148       N  0.53464707  0.81798164  0.69346290     0.74000
O3149       O  0.49743277  0.89615300  0.73082636    -0.39500
O3150       O  0.53771595  0.92507451  0.72257522    -0.39400
O3151       O  0.51473175  0.79585679  0.69289198    -0.40100
O3152       O  0.55463293  0.82158438  0.67929696    -0.40200
C3153       C  0.77662675  0.98744298  0.86953671    -0.12500
C3154       C  0.79134654  0.99357034  0.84249945     0.04500
C3155       C  0.81266923  0.01855002  0.83857319    -0.07800
C3156       C  0.82094166  0.03585434  0.86293247    -0.08500
C3157       C  0.80837296  0.02862536  0.89149173    -0.03100
C3158       C  0.78493043  0.00495085  0.89411756     0.03800
N3159       N  0.77084807  0.99729573  0.92237531     0.66300
H3160       H  0.76008004  0.96831163  0.87260288     0.15200
H3161       H  0.83859179  0.05423959  0.86024502     0.14900
N3162       N  0.82784800  0.02561696  0.81112165     0.74000
O3163       O  0.75230239  0.00142061  0.92642403    -0.39500
O3164       O  0.77328572  0.98192378  0.94004505    -0.39400
O3165       O  0.82409172  0.03825298  0.79058123    -0.40100
O3166       O  0.84848333  0.02475243  0.81079761    -0.40200
C3167       C  0.67951169  0.85734931  0.79245495    -0.12500
C3168       C  0.69160037  0.88437904  0.79239785     0.04500
C3169       C  0.67605534  0.89600000  0.79403886    -0.07800
C3170       C  0.64898806  0.88042937  0.79608212    -0.08500
C3171       C  0.63700774  0.85329837  0.79673936    -0.03100
C3172       C  0.65276782  0.84185264  0.79461041     0.03800
N3173       N  0.64214694  0.81444663  0.79450353     0.66300
H3174       H  0.69092254  0.84792793  0.79049123     0.15200
H3175       H  0.63739949  0.88964342  0.79804245     0.14900
N3176       N  0.68736083  0.92341912  0.79528741     0.74000
O3177       O  0.64105015  0.80325195  0.76954751    -0.39500
O3178       O  0.64052267  0.80298208  0.81946051    -0.39400
O3179       O  0.68651625  0.93545304  0.77191936    -0.40100
O3180       O  0.69242335  0.93443262  0.82108969    -0.40200
C3181       C  0.98503681  0.43811490  0.89544055    -0.12500
C3182       C  0.96973778  0.44472656  0.87743457     0.04500
C3183       C  0.98162124  0.46361843  0.85434910    -0.07800
C3184       C  0.00840542  0.47696103  0.85114928    -0.08500
C3185       C  0.02404009  0.47190370  0.87050425    -0.03100
C3186       C  0.01215418  0.45153806  0.89207735     0.03800
N3187       N  0.02725418  0.44559513  0.91223700     0.66300
H3188       H  0.97611378  0.42366907  0.91331765     0.15200
H3189       H  0.01711104  0.49191321  0.83376320     0.14900
N3190       N  0.96669419  0.46951532  0.83383809     0.74000
O3191       O  0.03419046  0.45691058  0.93778615    -0.39500
O3192       O  0.02873205  0.42553703  0.90759630    -0.39400
O3193       O  0.96708728  0.49073226  0.83641088    -0.40100
O3194       O  0.95886528  0.45700117  0.80915913    -0.40200
C3195       C  0.79525482  0.32509056  0.90351869    -0.12500
C3196       C  0.81645015  0.34007867  0.92285529     0.04500
C3197       C  0.81794908  0.32931258  0.95116776    -0.07800
C3198       C  0.80003872  0.30351710  0.95808774    -0.08500
C3199       C  0.78063670  0.28806014  0.93727090    -0.03100
C3200       C  0.77760323  0.29918720  0.91036877     0.03800
N3201       N  0.75718373  0.28427293  0.88941358     0.66300
H3202       H  0.79321031  0.33288322  0.88195906     0.15200
H3203       H  0.80228915  0.29506112  0.97901390     0.14900
N3204       N  0.83810446  0.34377930  0.97259722     0.74000
O3205       O  0.73787889  0.28748289  0.88835615    -0.39500
O3206       O  0.76063966  0.27183332  0.86833864    -0.39400
O3207       O  0.83343884  0.35368130  0.99556421    -0.40100
O3208       O  0.85799324  0.34151086  0.97252803    -0.40200
C3209       C  0.14437952  0.45531907  0.95385876    -0.12500
C3210       C  0.13978831  0.45840182  0.98470983     0.04500
C3211       C  0.12349451  0.46844321  0.99189650    -0.07800
C3212       C  0.11601984  0.47945876  0.96854680    -0.08500
C3213       C  0.12288515  0.47867664  0.93784627    -0.03100
C3214       C  0.13541388  0.46467976  0.93037215     0.03800
N3215       N  0.14151393  0.46206446  0.89930571     0.66300
H3216       H  0.15625561  0.44691760  0.94801174     0.15200
H3217       H  0.10560539  0.48939500  0.97447927     0.14900
N3218       N  0.11812911  0.47421041  0.52224411     0.74000
O3219       O  0.16385338  0.47720837  0.88898806    -0.39500
O3220       O  0.12717040  0.44134766  0.88517085    -0.39400
O3221       O  0.13140829  0.49441170  0.53770810    -0.40100
O3222       O  0.09937016  0.45479224  0.53471578    -0.40200
C3223       C  0.09848322  0.31928106  0.55553709    -0.12500
C3224       C  0.10519426  0.31021986  0.52930154     0.04500
C3225       C  0.12442790  0.32825016  0.50926709    -0.07800
C3226       C  0.13757080  0.35453826  0.51663530    -0.08500
C3227       C  0.13190355  0.36341350  0.54368904    -0.03100
C3228       C  0.11182215  0.34569728  0.56297305     0.03800
N3229       N  0.10634123  0.35383209  0.59145089     0.66300
H3230       H  0.08403020  0.30566708  0.57131937     0.15200
H3231       H  0.15292137  0.36802439  0.50162466     0.14900
N3232       N  0.13100043  0.32017178  0.48142371     0.74000
O3233       O  0.08793810  0.35842702  0.59302498    -0.39500
O3234       O  0.11580937  0.35082056  0.61587666    -0.39400
O3235       O  0.12121521  0.32181915  0.45651111    -0.40100
O3236       O  0.15063815  0.31748990  0.48068474    -0.40200
C3237       C  0.95488294  0.11412335  0.00638077    -0.12500
C3238       C  0.94578470  0.11997472  0.97972286     0.04500
C3239       C  0.96298270  0.14113729  0.96144967    -0.07800
C3240       C  0.98795098  0.15764472  0.97155707    -0.08500
C3241       C  0.99482927  0.15603849  0.50048258    -0.03100
C3242       C  0.97715756  0.13483527  0.51883698     0.03800
N3243       N  0.98370470  0.13097433  0.54912695     0.66300
H3244       H  0.93808240  0.10350211  0.52340772     0.15200
H3245       H  0.99978056  0.17474286  0.95820460     0.14900
N3246       N  0.95485412  0.14704780  0.93324170     0.74000
O3247       O  0.98000168  0.14220478  0.57146275    -0.39500
O3248       O  0.98776176  0.11252387  0.55421298    -0.39400
O3249       O  0.95025010  0.16546802  0.93230637    -0.40100
O3250       O  0.95783658  0.13789435  0.90846299    -0.40200
C3251       C  0.69545611  0.22018928  0.66605999    -0.12500
C3252       C  0.70722831  0.20974485  0.68463019     0.04500
C3253       C  0.69175681  0.18467090  0.69685006    -0.07800
C3254       C  0.66606267  0.16991670  0.68836172    -0.08500
C3255       C  0.65456132  0.17920184  0.66784165    -0.03100
C3256       C  0.66917736  0.20517108  0.65775348     0.03800
N3257       N  0.65781402  0.21648943  0.63908855     0.66300
H3258       H  0.70679450  0.23966853  0.65726690     0.15200
H3259       H  0.65565249  0.15022255  0.69658581     0.14900
N3260       N  0.70168358  0.17351032  0.71800067     0.74000
O3261       O  0.64564631  0.22619024  0.65184177    -0.39500
O3262       O  0.66457741  0.22182188  0.61133638    -0.39400
O3263       O  0.69418495  0.17057780  0.74558358    -0.40100
O3264       O  0.71063830  0.15981252  0.70773533    -0.40200
C3265       C  0.83767059  0.32840705  0.82698073    -0.12500
C3266       C  0.86408289  0.34619289  0.82486623     0.04500
C3267       C  0.87862203  0.34382117  0.80076482    -0.07800
C3268       C  0.86594587  0.32517742  0.77781512    -0.08500
C3269       C  0.83901547  0.30876329  0.77857054    -0.03100
C3270       C  0.82508040  0.30969676  0.80453757     0.03800
N3271       N  0.79778290  0.29304210  0.80762364     0.66300
H3272       H  0.82631367  0.32998874  0.84545835     0.15200
H3273       H  0.87713302  0.32421242  0.75874283     0.14900
N3274       N  0.90604887  0.35989064  0.79913737     0.74000
O3275       O  0.78876856  0.26968988  0.81515520    -0.39500
O3276       O  0.78262039  0.30138005  0.80155042    -0.39400
O3277       O  0.91972972  0.35540853  0.81731318    -0.40100
O3278       O  0.91620578  0.37218171  0.77466523    -0.40200
C3279       C  0.78643003  0.21354233  0.58981634    -0.12500
C3280       C  0.79914543  0.23876261  0.60139387     0.04500
C3281       C  0.80645346  0.25962522  0.58083463    -0.07800
C3282       C  0.79885237  0.25473276  0.54988385    -0.08500
C3283       C  0.78438194  0.22932004  0.53906235    -0.03100
C3284       C  0.77918287  0.20869059  0.55902772     0.03800
N3285       N  0.76655450  0.18259953  0.54850919     0.66300
H3286       H  0.78135078  0.19733366  0.60502319     0.15200
H3287       H  0.80282167  0.27072839  0.53482181     0.14900
N3288       N  0.81929783  0.28566647  0.59150083     0.74000
O3289       O  0.78032475  0.17310638  0.54041038    -0.39500
O3290       O  0.74359255  0.16746530  0.55685198    -0.39400
O3291       O  0.84311705  0.30000495  0.58619714    -0.40100
O3292       O  0.80606339  0.29570237  0.59986731    -0.40200
C3293       C  0.73973946  0.19960423  0.80066100    -0.12500
C3294       C  0.76431636  0.20855977  0.78797906     0.04500
C3295       C  0.78446286  0.21111470  0.80697764    -0.07800
C3296       C  0.77978193  0.20526395  0.83837455    -0.08500
C3297       C  0.75515765  0.19665367  0.85125808    -0.03100
C3298       C  0.73481535  0.19312493  0.83173016     0.03800
N3299       N  0.70941483  0.18476504  0.84325054     0.66300
H3300       H  0.72444267  0.19849627  0.78662000     0.15200
H3301       H  0.79570669  0.20833086  0.85287787     0.14900
N3302       N  0.81027462  0.22206523  0.79550849     0.74000
O3303       O  0.70148101  0.20071849  0.84457110    -0.39500
O3304       O  0.69322961  0.16091211  0.84441211    -0.39400
O3305       O  0.82503715  0.24622879  0.79637959    -0.40100
O3306       O  0.81985084  0.20767279  0.79144124    -0.40200
C3307       C  0.88467411  0.04113918  0.73909348    -0.12500
C3308       C  0.87409664  0.05239010  0.71997548     0.04500
C3309       C  0.84930582  0.03642910  0.70746493    -0.07800
C3310       C  0.83452125  0.01082418  0.71698714    -0.08500
C3311       C  0.84365745  0.00030009  0.73901665    -0.03100
C3312       C  0.86972648  0.01510520  0.74850362     0.03800
N3313       N  0.88092129  0.00452828  0.76863619     0.66300
H3314       H  0.90395800  0.05291239  0.74817444     0.15200
H3315       H  0.81497619  0.99953206  0.70840212     0.14900
N3316       N  0.83832800  0.04616108  0.68580151     0.74000
O3317       O  0.89141617  0.99259776  0.75726948    -0.39500
O3318       O  0.88577467  0.01219217  0.79606241    -0.39400
O3319       O  0.83907918  0.04169689  0.65761806    -0.40100
O3320       O  0.82258907  0.05297417  0.69506420    -0.40200
C3321       C  0.84006638  0.19963441  0.72553022    -0.12500
C3322       C  0.85197427  0.22280423  0.70887879     0.00900
C3323       C  0.87772421  0.23284046  0.69891668    -0.07800
C3324       C  0.89050090  0.21877459  0.70426890    -0.08500
C3325       C  0.87798575  0.19480668  0.71966040    -0.03100
C3326       C  0.85277541  0.18589549  0.73146941     0.03800
N3327       N  0.83954532  0.16280641  0.74946245     0.66300
H3328       H  0.82041311  0.19184344  0.73371095     0.15200
H3329       H  0.90977669  0.22605251  0.69509177     0.14900
N3330       N  0.89035558  0.25600908  0.68112008     0.74000
O3331       O  0.84199935  0.16414717  0.77827492    -0.39500
O3332       O  0.82146837  0.14263410  0.73757958    -0.39400
O3333       O  0.90767488  0.27650259  0.69329533    -0.40100
O3334       O  0.88815226  0.25473292  0.65228248    -0.40200
C3335       C  0.89754603  0.15269497  0.83345260    -0.12500
C3336       C  0.89904091  0.13574302  0.81244270     0.04500
C3337       C  0.89881810  0.11348158  0.82312681    -0.07800
C3338       C  0.89519411  0.10738850  0.85428535    -0.08500
C3339       C  0.89237435  0.12355463  0.87556832    -0.03100
C3340       C  0.89428052  0.14682344  0.86494969     0.03800
N3341       N  0.89331203  0.16481964  0.88569475     0.66300
H3342       H  0.89835081  0.17022515  0.82532619     0.15200
H3343       H  0.89432449  0.08965399  0.86169487     0.14900
N3344       N  0.90273083  0.09712895  0.80248048     0.74000
O3345       O  0.91411692  0.18326859  0.89583235    -0.39500
O3346       O  0.87266559  0.16555063  0.88847640    -0.39400
O3347       O  0.92435127  0.10533122  0.78941705    -0.40100
O3348       O  0.88370679  0.07602853  0.79409089    -0.40200
C3349       C  0.85319898  0.12270716  0.57885551    -0.12500
C3350       C  0.85658390  0.10444869  0.56236479     0.04500
C3351       C  0.86420146  0.08874163  0.57775193    -0.07800
C3352       C  0.86894732  0.09184390  0.60909097    -0.08500
C3353       C  0.86710535  0.11104221  0.62563519    -0.03100
C3354       C  0.85829327  0.12605913  0.61050914     0.03800
N3355       N  0.85593846  0.14571631  0.62632617     0.66300
H3356       H  0.84753260  0.13493956  0.56702958     0.15200
H3357       H  0.87570786  0.08010856  0.62013791     0.14900
N3358       N  0.86923963  0.07093796  0.56148916     0.74000
O3359       O  0.87393992  0.16888474  0.62444168    -0.39500
O3360       O  0.83412591  0.14081998  0.63642967    -0.39400
O3361       O  0.89126638  0.07895884  0.54965513    -0.40100
O3362       O  0.85487433  0.04705520  0.56615103    -0.40200
C3363       C  0.99829826  0.21059740  0.65241184    -0.12500
C3364       C  0.97257384  0.19494028  0.64341995     0.04500
C3365       C  0.96648335  0.19164192  0.61193396    -0.07800
C3366       C  0.98640320  0.20152757  0.59013694    -0.08500
C3367       C  0.01231709  0.21413707  0.59939799    -0.03100
C3368       C  0.01822948  0.21989722  0.63070144     0.03800
N3369       N  0.04427775  0.23459951  0.64099370     0.66300
H3370       H  0.00319262  0.21354230  0.67654779     0.15200
H3371       H  0.98157421  0.19729571  0.56610334     0.14900
N3372       N  0.94029873  0.17725729  0.60183253     0.74000
O3373       O  0.05252237  0.25758921  0.64945157    -0.39500
O3374       O  0.05579322  0.22294241  0.64994258    -0.39400
O3375       O  0.92881260  0.18919402  0.59387926    -0.40100
O3376       O  0.93090032  0.15384749  0.59448037    -0.40200
C3377       C  0.85098658  0.99274570  0.99767536    -0.12500
C3378       C  0.83632970  0.00623839  0.50526955     0.04500
C3379       C  0.81534209  0.99297371  0.52593407    -0.07800
C3380       C  0.80742522  0.96759691  0.53440830    -0.08500
C3381       C  0.81925698  0.95427543  0.52241870    -0.03100
C3382       C  0.84345438  0.96730396  0.00659505     0.03800
N3383       N  0.85798295  0.95584451  0.99569943     0.66300
H3384       H  0.86805128  0.00310541  0.98343367     0.15200
H3385       H  0.79076333  0.95772628  0.54933043     0.14900
N3386       N  0.80009560  0.00381171  0.53646352     0.74000
O3387       O  0.85295521  0.94515953  0.96969909    -0.39500
O3388       O  0.87889824  0.96120891  0.00868382    -0.39400
O3389       O  0.78054312  0.99978569  0.52118468    -0.40100
O3390       O  0.80178766  0.01077729  0.56410177    -0.40200
C3391       C  0.76100098  0.85590650  0.91480488    -0.12500
C3392       C  0.76365767  0.87343813  0.93797639     0.04500
C3393       C  0.77079179  0.89905353  0.92945503    -0.07800
C3394       C  0.77593536  0.90667996  0.89883115    -0.08500
C3395       C  0.77399187  0.88946367  0.87581521    -0.03100
C3396       C  0.76589145  0.86361156  0.88389667     0.03800
N3397       N  0.76368549  0.84523682  0.86141106     0.66300
H3398       H  0.75567459  0.83626396  0.92070548     0.15200
H3399       H  0.78155867  0.92644972  0.89310869     0.14900
N3400       N  0.77411315  0.91813844  0.95155855     0.74000
O3401       O  0.78233637  0.84129006  0.85729723    -0.39500
O3402       O  0.74162179  0.82894345  0.85160043    -0.39400
O3403       O  0.79661633  0.93607414  0.95765846    -0.40100
O3404       O  0.75504493  0.92069062  0.95880260    -0.40200
C3405       C  0.74817971  0.87405700  0.64426118    -0.12500
C3406       C  0.76300744  0.89503737  0.62485375     0.04500
C3407       C  0.77379232  0.92033433  0.63606914    -0.07800
C3408       C  0.77009862  0.92432367  0.66673101    -0.08500
C3409       C  0.75650171  0.90337934  0.68693949    -0.03100
C3410       C  0.74483429  0.87793643  0.67520122     0.03800
N3411       N  0.73041127  0.85581808  0.69438975     0.66300
H3412       H  0.74029602  0.85455823  0.63574986     0.15200
H3413       H  0.77928241  0.94399947  0.67501858     0.14900
N3414       N  0.78923139  0.94218816  0.61690082     0.74000
O3415       O  0.70616032  0.84560418  0.69584960    -0.39500
O3416       O  0.74090657  0.84330064  0.70380729    -0.39400
O3417       O  0.78025780  0.95631334  0.60840361    -0.40100
O3418       O  0.81325965  0.95082134  0.61519533    -0.40200
C3419       C  0.51082843  0.81096245  0.54779449    -0.12500
C3420       C  0.50029963  0.78680186  0.56226835     0.04500
C3421       C  0.47917991  0.77902103  0.58247212    -0.07800
C3422       C  0.47027290  0.79626370  0.58938135    -0.08500
C3423       C  0.48251396  0.82135592  0.57686696    -0.03100
C3424       C  0.50249419  0.82830828  0.55498300     0.03800
N3425       N  0.51576388  0.85342394  0.54107280     0.66300
H3426       H  0.52697829  0.81722882  0.53212786     0.15200
H3427       H  0.45524679  0.79079367  0.60652769     0.14900
N3428       N  0.46863016  0.75516508  0.59885884     0.74000
O3429       O  0.53498217  0.87134598  0.55463397    -0.39500
O3430       O  0.51367745  0.85537863  0.51250773    -0.39400
O3431       O  0.47502191  0.75527642  0.62645324    -0.40100
O3432       O  0.44898479  0.73550333  0.58845738    -0.40200
C3433       C  0.65078884  0.80052434  0.56950216    -0.12500
C3434       C  0.63580233  0.77721318  0.55380706     0.04500
C3435       C  0.64877587  0.76755439  0.53556106    -0.07800
C3436       C  0.67592756  0.78232934  0.53160249    -0.08500
C3437       C  0.69039970  0.80666204  0.54557257    -0.03100
C3438       C  0.67751222  0.81516534  0.56552878     0.03800
N3439       N  0.69123665  0.83887648  0.58201628     0.66300
H3440       H  0.64158634  0.80802538  0.58449144     0.15200
H3441       H  0.68545556  0.77541601  0.51629999     0.14900
N3442       N  0.63471432  0.74374485  0.51941240     0.74000
O3443       O  0.69257673  0.85904133  0.57098823    -0.39500
O3444       O  0.69511760  0.83802882  0.61032549    -0.39400
O3445       O  0.62972872  0.74411823  0.49136132    -0.40100
O3446       O  0.63281101  0.72345562  0.53083227    -0.40200
C3447       C  0.58146550  0.78387944  0.66576594    -0.12500
C3448       C  0.56115074  0.76292010  0.65077910     0.04500
C3449       C  0.53878412  0.74580182  0.66738438    -0.07800
C3450       C  0.53662090  0.75045335  0.69827594    -0.08500
C3451       C  0.55663146  0.77155244  0.71338484    -0.03100
C3452       C  0.57955113  0.78817960  0.69706010     0.03800
N3453       N  0.60046273  0.81019336  0.71128323     0.66300
H3454       H  0.59866402  0.79713411  0.65303718     0.15200
H3455       H  0.51891688  0.73769138  0.71036038     0.14900
N3456       N  0.51776967  0.72383965  0.65327055     0.74000
O3457       O  0.62151970  0.81055242  0.71526153    -0.39500
O3458       O  0.60019549  0.83115343  0.71232049    -0.39400
O3459       O  0.51008797  0.70183289  0.66489780    -0.40100
O3460       O  0.50293344  0.72704787  0.63560450    -0.40200
C3461       C  0.55126120  0.80543010  0.91812684    -0.12500
C3462       C  0.56882696  0.80202548  0.90021925     0.04500
C3463       C  0.58524798  0.79457101  0.91441145    -0.07800
C3464       C  0.58339787  0.79004792  0.94613441    -0.08500
C3465       C  0.56441591  0.79148568  0.96361803    -0.03100
C3466       C  0.54859561  0.79978359  0.94953579     0.03800
N3467       N  0.52952343  0.80226378  0.96670823     0.66300
H3468       H  0.53854484  0.81106810  0.90735550     0.15200
H3469       H  0.59562213  0.78370045  0.95672030     0.14900
N3470       N  0.60332068  0.79078071  0.89684922     0.74000
O3471       O  0.53454853  0.82432822  0.97577260    -0.39500
O3472       O  0.50633878  0.78417829  0.96620225    -0.39400
O3473       O  0.62692636  0.80780814  0.89729328    -0.40100
O3474       O  0.59678768  0.76850225  0.88699638    -0.40200
C3475       C  0.53111873  0.67198773  0.93119515    -0.12500
C3476       C  0.51619703  0.64591843  0.93973427     0.04500
C3477       C  0.51291855  0.63905155  0.97113149    -0.07800
C3478       C  0.52337027  0.65836048  0.99335401    -0.08500
C3479       C  0.53624923  0.68440850  0.98471555    -0.03100
C3480       C  0.54097205  0.69128678  0.95350619     0.03800
N3481       N  0.55473953  0.71782584  0.94432260     0.66300
H3482       H  0.53368657  0.67749342  0.90715837     0.15200
H3483       H  0.51946176  0.65300703  0.01739308     0.14900
N3484       N  0.49788391  0.61273301  0.98085935     0.74000
O3485       O  0.57760820  0.73225074  0.95327804    -0.39500
O3486       O  0.54447794  0.72655456  0.43116440    -0.39400
O3487       O  0.50926860  0.60112858  0.99040441    -0.40100
O3488       O  0.47422688  0.60356839  0.98701588    -0.40200
C3489       C  0.49089430  0.66934916  0.80770688    -0.12500
C3490       C  0.47783987  0.66045391  0.83588851     0.04500
C3491       C  0.47281771  0.67747237  0.85343892    -0.07800
C3492       C  0.48337309  0.70342638  0.84423588    -0.08500
C3493       C  0.49859198  0.71262510  0.81759045    -0.03100
C3494       C  0.50105645  0.69498750  0.79844781     0.03800
N3495       N  0.51383174  0.70279901  0.76934630     0.66300
H3496       H  0.49447808  0.65672043  0.79328896     0.15200
H3497       H  0.48086751  0.71668695  0.85880938     0.14900
N3498       N  0.45837968  0.66927017  0.88145185     0.74000
O3499       O  0.53717294  0.70858837  0.76706959    -0.39500
O3500       O  0.50034738  0.69750256  0.74538945    -0.39400
O3501       O  0.47010050  0.67553838  0.90676966    -0.40100
O3502       O  0.43434585  0.66074819  0.88093931    -0.40200
C3503       C  0.54643512  0.56471080  0.89666926    -0.12500
C3504       C  0.53262390  0.56053518  0.86929295     0.04500
C3505       C  0.53524367  0.54571225  0.84585913    -0.07800
C3506       C  0.54965631  0.53352664  0.85104175    -0.08500
C3507       C  0.56178049  0.53597744  0.87924297    -0.03100
C3508       C  0.56091384  0.55241674  0.90187107     0.03800
N3509       N  0.57268396  0.55502059  0.93111512     0.66300
H3510       H  0.54451765  0.57601204  0.91482996     0.15200
H3511       H  0.55024090  0.52095680  0.83353260     0.14900
N3512       N  0.52285750  0.54235953  0.81687797     0.74000
O3513       O  0.59474834  0.57421208  0.93603545    -0.39500
O3514       O  0.55904961  0.54171650  0.95351899    -0.39400
O3515       O  0.53575110  0.55628849  0.79444495    -0.40100
O3516       O  0.50153134  0.52215837  0.81201904    -0.40200
C3517       C  0.67593822  0.53934347  0.82899463    -0.12500
C3518       C  0.64976859  0.52524075  0.82128048     0.04500
C3519       C  0.64223318  0.52438951  0.79053614    -0.07800
C3520       C  0.66112534  0.53515262  0.76748042    -0.08500
C3521       C  0.68743169  0.54688184  0.77488643    -0.03100
C3522       C  0.69482690  0.55010315  0.80602751     0.03800
N3523       N  0.72143899  0.56292127  0.81454874     0.66300
H3524       H  0.68182894  0.54030673  0.85269478     0.15200
H3525       H  0.65518483  0.53260805  0.74365086     0.14900
N3526       N  0.61546906  0.51167292  0.78250898     0.74000
O3527       O  0.73300824  0.58688588  0.81968410    -0.39500
O3528       O  0.73140329  0.54976273  0.82341685    -0.39400
O3529       O  0.60095655  0.51931227  0.79377893    -0.40100
O3530       O  0.60580635  0.49130095  0.76669590    -0.40200
C3531       C  0.81636133  0.79576244  0.61778899    -0.12500
C3532       C  0.81196572  0.79956605  0.64850140     0.04500
C3533       C  0.79583184  0.80986582  0.65523389    -0.07800
C3534       C  0.78682051  0.81883344  0.63136862    -0.08500
C3535       C  0.79267936  0.81669911  0.60070825    -0.03100
C3536       C  0.80622019  0.80355314  0.59381189     0.03800
N3537       N  0.81127711  0.79943497  0.56281114     0.66300
H3538       H  0.82846316  0.78754358  0.61242454     0.15200
H3539       H  0.77627350  0.82869801  0.63689441     0.14900
N3540       N  0.79067835  0.81389194  0.68618511     0.74000
O3541       O  0.79433966  0.77991306  0.54866441    -0.39500
O3542       O  0.83423519  0.81066838  0.55296121    -0.39400
O3543       O  0.80135472  0.83654515  0.69670729    -0.40100
O3544       O  0.77135469  0.79613837  0.70003467    -0.40200
C3545       C  0.81993159  0.68440362  0.72451446    -0.12500
C3546       C  0.80860993  0.69900490  0.71521495     0.04500
C3547       C  0.78301571  0.68561661  0.70389550    -0.07800
C3548       C  0.77003309  0.65844531  0.70086732    -0.08500
C3549       C  0.78215519  0.64427121  0.70888501    -0.03100
C3550       C  0.80719569  0.65764106  0.72152150     0.03800
N3551       N  0.82004917  0.64434466  0.73204402     0.66300
H3552       H  0.83914436  0.69375873  0.73418205     0.15200
H3553       H  0.75078925  0.64854421  0.69130643     0.14900
N3554       N  0.77009234  0.69915969  0.69476068     0.74000
O3555       O  0.83674395  0.64350778  0.71499269    -0.39500
O3556       O  0.81975367  0.63969022  0.76034303    -0.39400
O3557       O  0.76969956  0.70429713  0.66673284    -0.40100
O3558       O  0.75460122  0.70074323  0.71320487    -0.40200
C3559       C  0.84968342  0.87087736  0.73414507    -0.12500
C3560       C  0.84531358  0.85056705  0.75428534     0.04500
C3561       C  0.83299421  0.84859965  0.78278093    -0.07800
C3562       C  0.82421794  0.86581988  0.78964225    -0.08500
C3563       C  0.82673892  0.88449127  0.76833770    -0.03100
C3564       C  0.83996410  0.88735024  0.74063373     0.03800
N3565       N  0.84255610  0.90599397  0.71824273     0.66300
H3566       H  0.85897489  0.87286242  0.71212912     0.15200
H3567       H  0.81406989  0.86367077  0.81099621     0.14900
N3568       N  0.82840975  0.82888112  0.80463365     0.74000
O3569       O  0.86334492  0.92734691  0.71662957    -0.39500
O3570       O  0.82660696  0.89918672  0.69649373    -0.39400
O3571       O  0.84095119  0.83514238  0.82939193    -0.40100
O3572       O  0.80765198  0.80749710  0.80322371    -0.40200
C3573       C  0.88160833  0.85153559  0.50576094    -0.12500
C3574       C  0.88075433  0.83747138  0.97729581     0.04500
C3575       C  0.86019928  0.83432158  0.95856228    -0.07800
C3576       C  0.84467098  0.84452855  0.96764930    -0.08500
C3577       C  0.84918320  0.85816188  0.99530281    -0.03100
C3578       C  0.86617916  0.86205860  0.51483910     0.03800
N3579       N  0.87231301  0.87630370  0.54289273     0.66300
H3580       H  0.89735451  0.85408942  0.52029824     0.15200
H3581       H  0.82810512  0.84044039  0.95372689     0.14900
N3582       N  0.85434799  0.82005133  0.93055817     0.74000
O3583       O  0.88867837  0.90012015  0.54255381    -0.39500
O3584       O  0.86597234  0.86437329  0.56820827    -0.39400
O3585       O  0.83525083  0.79741679  0.92955715    -0.40100
O3586       O  0.86449893  0.83184561  0.90581058    -0.40200
C3587       C  0.90649552  0.79584756  0.57551036    -0.12500
C3588       C  0.89644640  0.77077803  0.56464119     0.04500
C3589       C  0.88598225  0.74981154  0.58509858    -0.07800
C3590       C  0.88450111  0.75420925  0.61649317    -0.08500
C3591       C  0.89370420  0.77947393  0.62757363    -0.03100
C3592       C  0.90549295  0.80051096  0.60657390     0.03800
N3593       N  0.91588426  0.82678164  0.61593839     0.66300
H3594       H  0.91496599  0.81201817  0.55959626     0.15200
H3595       H  0.87542951  0.73781690  0.63198386     0.14900
N3596       N  0.87565983  0.72403895  0.57398624     0.74000
O3597       O  0.93997767  0.84082964  0.61911831    -0.39500
O3598       O  0.90220083  0.83731692  0.61345467    -0.39400
O3599       O  0.89064728  0.71531855  0.56869693    -0.40100
O3600       O  0.85286608  0.71210193  0.56390840    -0.40200
C3601       C  0.84933210  0.75025031  0.83406550    -0.12500
C3602       C  0.86244136  0.77188624  0.81490343     0.04500
C3603       C  0.87950059  0.79603502  0.82752027    -0.07800
C3604       C  0.88445311  0.79817374  0.85870757    -0.08500
C3605       C  0.87329571  0.77635197  0.87798334    -0.03100
C3606       C  0.85474898  0.75224298  0.86563093     0.03800
N3607       N  0.84177549  0.72963385  0.88438592     0.66300
H3608       H  0.83570639  0.73170765  0.82437007     0.15200
H3609       H  0.89829854  0.81705865  0.86738364     0.14900
N3610       N  0.89334372  0.81839712  0.80858537     0.74000
O3611       O  0.82016111  0.72368768  0.89614635    -0.39500
O3612       O  0.84894512  0.71304920  0.88364097    -0.39400
O3613       O  0.88618498  0.83497119  0.80748060    -0.40100
O3614       O  0.91588235  0.82463738  0.79995835    -0.40200
C3615       C  0.70402089  0.48610372  0.92042002    -0.12500
C3616       C  0.71679059  0.50952588  0.93641713     0.04500
C3617       C  0.70255877  0.52089350  0.94716131    -0.07800
C3618       C  0.67620893  0.50923010  0.94137659    -0.08500
C3619       C  0.66346602  0.48679791  0.92348105    -0.03100
C3620       C  0.67759459  0.47491409  0.91331198     0.03800
N3621       N  0.66575633  0.45203603  0.89509586     0.66300
H3622       H  0.71480404  0.47716436  0.91220079     0.15200
H3623       H  0.66614741  0.51900013  0.94932413     0.14900
N3624       N  0.71467556  0.54472933  0.96357159     0.74000
O3625       O  0.66785205  0.45395355  0.86623662    -0.39500
O3626       O  0.65876375  0.43048959  0.90766090    -0.39400
O3627       O  0.70768775  0.53977830  0.48886064    -0.40100
O3628       O  0.70194732  0.50407716  0.50950024    -0.40200
C3629       C  0.87377537  0.65753259  0.93981288    -0.12500
C3630       C  0.85476341  0.64208808  0.96147128     0.04500
C3631       C  0.84888924  0.65407823  0.98564339    -0.07800
C3632       C  0.86119177  0.68097943  0.98696116    -0.08500
C3633       C  0.87966034  0.69638499  0.96486886    -0.03100
C3634       C  0.88618968  0.68452203  0.94128287     0.03800
N3635       N  0.90370014  0.69945645  0.91726892     0.66300
H3636       H  0.87810418  0.64866448  0.92076668     0.15200
H3637       H  0.85627491  0.68988544  0.00540910     0.14900
N3638       N  0.83081998  0.63928736  0.00932587     0.74000
O3639       O  0.93072119  0.70211612  0.43717608    -0.39500
O3640       O  0.89487172  0.70257823  0.89237266    -0.39400
O3641       O  0.83902866  0.63526796  0.03417626    -0.40100
O3642       O  0.80807333  0.63545337  0.00820567    -0.40200
C3643       C  0.80554312  0.46606592  0.91876633    -0.12500
C3644       C  0.81733896  0.49120579  0.90637202     0.04500
C3645       C  0.83706530  0.49833929  0.88413492    -0.07800
C3646       C  0.84644341  0.48172368  0.87735606    -0.08500
C3647       C  0.83665556  0.45779142  0.89214702    -0.03100
C3648       C  0.81506721  0.44930711  0.91181403     0.03800
N3649       N  0.80419877  0.42491701  0.92709283     0.66300
H3650       H  0.79041548  0.46020477  0.93585997     0.15200
H3651       H  0.86235893  0.48812613  0.86123423     0.14900
N3652       N  0.84860574  0.52284358  0.86895284     0.74000
O3653       O  0.81315192  0.42336264  0.95268098    -0.39500
O3654       O  0.78271201  0.40658481  0.91839232    -0.39400
O3655       O  0.87016843  0.54074535  0.87813652    -0.40100
O3656       O  0.84144347  0.52399470  0.84208981    -0.40200
C3657       C  0.80740421  0.55660025  0.83572645    -0.12500
C3658       C  0.80691425  0.57617636  0.85295341     0.04500
C3659       C  0.80015199  0.59300903  0.83831399    -0.07800
C3660       C  0.79292881  0.58916525  0.80730095    -0.08500
C3661       C  0.79222493  0.56868114  0.79072605    -0.03100
C3662       C  0.80021154  0.55275786  0.80496926     0.03800
N3663       N  0.80158751  0.53284016  0.78845414     0.66300
H3664       H  0.81230705  0.54340457  0.84653400     0.15200
H3665       H  0.78667910  0.60142598  0.79660382     0.14900
N3666       N  0.80057298  0.61402411  0.85441682     0.74000
O3667       O  0.82334333  0.53695368  0.77911827    -0.39500
O3668       O  0.78321726  0.50987285  0.79072490    -0.39400
O3669       O  0.81977883  0.63643438  0.85124644    -0.40100
O3670       O  0.77990217  0.61130234  0.86579686    -0.40200
C3671       C  0.75189699  0.56224032  0.55122878    -0.12500
C3672       C  0.77374982  0.56044642  0.54334451     0.04500
C3673       C  0.79259901  0.56576766  0.56573518    -0.07800
C3674       C  0.78892282  0.57151578  0.59558129    -0.08500
C3675       C  0.76622024  0.57141825  0.60441645    -0.03100
C3676       C  0.74780255  0.56737124  0.58162128     0.03800
N3677       N  0.72441050  0.56721316  0.58892136     0.66300
H3678       H  0.73765021  0.55884275  0.53419282     0.15200
H3679       H  0.80378763  0.57522817  0.61216271     0.14900
N3680       N  0.81597190  0.56588754  0.55849746     0.74000
O3681       O  0.72358738  0.58779466  0.58605498    -0.39500
O3682       O  0.70355495  0.54591957  0.59037225    -0.39400
O3683       O  0.83637637  0.58723207  0.55427575    -0.40100
O3684       O  0.81750549  0.54595821  0.56392611    -0.40200
C3685       C  0.16109868  0.53306067  0.62456694    -0.12500
C3686       C  0.16089420  0.54960480  0.60191445     0.04500
C3687       C  0.17174012  0.55049363  0.57295606    -0.07800
C3688       C  0.18216188  0.53449371  0.56690544    -0.08500
C3689       C  0.18037843  0.51617845  0.58867669    -0.03100
C3690       C  0.17030710  0.51609254  0.61813473     0.03800
N3691       N  0.16803997  0.49811330  0.64129662     0.66300
H3692       H  0.15248813  0.53210781  0.64662589     0.15200
H3693       H  0.18938574  0.53473581  0.54402568     0.14900
N3694       N  0.17053569  0.56601089  0.54876322     0.74000
O3695       O  0.18558334  0.50495119  0.66111347    -0.39500
O3696       O  0.14640985  0.47816384  0.64606893    -0.39400
O3697       O  0.19087537  0.58606062  0.54022008    -0.40100
O3698       O  0.15075404  0.55690773  0.53199203    -0.40200
C3699       C  0.11425307  0.59093439  0.00489663    -0.12500
C3700       C  0.09074011  0.56988702  0.52071194     0.04500
C3701       C  0.07291053  0.54639079  0.50647884    -0.07800
C3702       C  0.07632318  0.54595986  0.97676168    -0.08500
C3703       C  0.09827556  0.56337255  0.95989552    -0.03100
C3704       C  0.11689712  0.58648318  0.97399241     0.03800
N3705       N  0.13889440  0.60555529  0.95737867     0.66300
H3706       H  0.12416665  0.60741956  0.51302698     0.15200
H3707       H  0.06183341  0.52822946  0.96624885     0.14900
N3708       N  0.05202869  0.52625042  0.52341670     0.74000
O3709       O  0.13792325  0.62415327  0.94505435    -0.39500
O3710       O  0.16057072  0.60719660  0.96129476    -0.39400
O3711       O  0.02998991  0.52419600  0.52213958    -0.40100
O3712       O  0.05399462  0.50736365  0.53291904    -0.40200
C3713       C  0.08514641  0.54861329  0.72514923    -0.12500
C3714       C  0.10682949  0.55046200  0.71008412     0.04500
C3715       C  0.12297784  0.54361006  0.72604067    -0.07800
C3716       C  0.11735917  0.53522128  0.75663337    -0.08500
C3717       C  0.09642938  0.53456122  0.77217583    -0.03100
C3718       C  0.08011273  0.54120458  0.75616991     0.03800
N3719       N  0.05842070  0.54052066  0.77103856     0.66300
H3720       H  0.07267479  0.55394005  0.71312220     0.15200
H3721       H  0.13025416  0.53054628  0.76882043     0.14900
N3722       N  0.14563932  0.54588337  0.71195394     0.74000
O3723       O  0.06099128  0.56068728  0.78359397    -0.39500
O3724       O  0.03604027  0.52187331  0.76601684    -0.39400
O3725       O  0.16669018  0.56689633  0.71426005    -0.40100
O3726       O  0.14607532  0.52561900  0.70499561    -0.40200
C3727       C  0.83457534  0.38021308  0.68538120    -0.12500
C3728       C  0.82986775  0.38625316  0.65586468     0.04500
C3729       C  0.81309656  0.36580394  0.63630818    -0.07800
C3730       C  0.80372466  0.34002493  0.64548933    -0.08500
C3731       C  0.81011035  0.33436415  0.67423743    -0.03100
C3732       C  0.82485597  0.35467211  0.69465215     0.03800
N3733       N  0.83247324  0.34984548  0.72378774     0.66300
H3734       H  0.84707080  0.39546954  0.70094569     0.15200
H3735       H  0.79184274  0.32449870  0.62998571     0.14900
N3736       N  0.80619468  0.37069654  0.60673794     0.74000
O3737       O  0.85477208  0.35274276  0.72647951    -0.39500
O3738       O  0.82020653  0.34959323  0.74756774    -0.39400
O3739       O  0.81387470  0.36430618  0.58307859    -0.40100
O3740       O  0.78730533  0.37448967  0.60459172    -0.40200
C3741       C  0.86978963  0.51114826  0.53540546    -0.12500
C3742       C  0.87741267  0.52567528  0.56243931     0.04500
C3743       C  0.87936052  0.55019878  0.56276726    -0.07800
C3744       C  0.87132451  0.55854580  0.53689615    -0.08500
C3745       C  0.86007956  0.54202403  0.51168350    -0.03100
C3746       C  0.86062569  0.51872444  0.51050522     0.03800
N3747       N  0.84606743  0.49788813  0.98830438     0.66300
H3748       H  0.86834746  0.49237199  0.53475648     0.15200
H3749       H  0.87125267  0.57653637  0.53794820     0.14900
N3750       N  0.88613870  0.56521899  0.59020288     0.74000
O3751       O  0.85927356  0.49630853  0.96662156    -0.39500
O3752       O  0.82351867  0.47934513  0.99315556    -0.39400
O3753       O  0.90772229  0.58572447  0.59177241    -0.40100
O3754       O  0.86880794  0.56109817  0.60972466    -0.40200
C3755       C  0.90116164  0.45108840  0.74015534    -0.12500
C3756       C  0.90203334  0.47435460  0.73267115     0.04500
C3757       C  0.90251771  0.49050129  0.75680207    -0.07800
C3758       C  0.90037970  0.48208816  0.78745482    -0.08500
C3759       C  0.89840798  0.45825479  0.79428384    -0.03100
C3760       C  0.89939347  0.44305651  0.77041324     0.03800
N3761       N  0.89876098  0.41930331  0.77639978     0.66300
H3762       H  0.90094837  0.43834310  0.72234988     0.15200
H3763       H  0.89996699  0.49400007  0.80592048     0.14900
N3764       N  0.90619147  0.51567288  0.75091542     0.74000
O3765       O  0.87764194  0.39842886  0.77374805    -0.39500
O3766       O  0.91959534  0.41889977  0.77433085    -0.39400
O3767       O  0.89157552  0.52243943  0.76384329    -0.40100
O3768       O  0.92750299  0.53286080  0.73993237    -0.40200
C3769       C  0.89367029  0.41632521  0.50348608    -0.12500
C3770       C  0.90160249  0.43864426  0.98405682     0.04500
C3771       C  0.90910366  0.46337313  0.99595347    -0.07800
C3772       C  0.90194520  0.46372467  0.52529876    -0.08500
C3773       C  0.89136371  0.44227417  0.54498501    -0.03100
C3774       C  0.88869484  0.41876884  0.53446117     0.03800
N3775       N  0.87987032  0.39692052  0.55433029     0.66300
H3776       H  0.88458571  0.39816814  0.99550700     0.15200
H3777       H  0.90551839  0.48226958  0.53367188     0.14900
N3778       N  0.92343751  0.48612011  0.97771404     0.74000
O3779       O  0.85784726  0.37754149  0.54998175    -0.39500
O3780       O  0.89624797  0.39414409  0.56952020    -0.39400
O3781       O  0.91312329  0.49920084  0.96986972    -0.40100
O3782       O  0.94763443  0.49606220  0.97560068    -0.40200
C3783       C  0.98228150  0.54645390  0.63057240    -0.12500
C3784       C  0.96911469  0.51931855  0.63039633     0.04500
C3785       C  0.98365817  0.50657019  0.62951886    -0.07800
C3786       C  0.01057496  0.52091882  0.62804632    -0.08500
C3787       C  0.02378475  0.54802472  0.62750650    -0.03100
C3788       C  0.00935823  0.56084105  0.62906830     0.03800
N3789       N  0.02182077  0.58836362  0.63021372     0.66300
H3790       H  0.97153498  0.55658992  0.63185589     0.15200
H3791       H  0.02117077  0.51061591  0.62695924     0.14900
N3792       N  0.97157672  0.47906005  0.63139131     0.74000
O3793       O  0.02317427  0.60082694  0.60621870    -0.39500
O3794       O  0.02606980  0.59940666  0.65594981    -0.39400
O3795       O  0.96916322  0.46624757  0.60738302    -0.40100
O3796       O  0.96867307  0.46844509  0.65729398    -0.40200
C3797       C  0.79315196  0.47860907  0.65496254    -0.12500
C3798       C  0.81631143  0.48625477  0.67089660     0.04500
C3799       C  0.82181530  0.50197521  0.69699811    -0.07800
C3800       C  0.80571555  0.51160227  0.70513657    -0.08500
C3801       C  0.78376632  0.50582336  0.68800114    -0.03100
C3802       C  0.77682094  0.48835837  0.66331878     0.03800
N3803       N  0.75498842  0.48250899  0.64466781     0.66300
H3804       H  0.78878989  0.46678881  0.63464634     0.15200
H3805       H  0.81108678  0.52472407  0.72410856     0.14900
N3806       N  0.84407314  0.50887088  0.71527640     0.74000
O3807       O  0.75784977  0.49634330  0.62143890    -0.39500
O3808       O  0.73475371  0.46077552  0.64733377    -0.39400
O3809       O  0.86365957  0.53105298  0.71223470    -0.40100
O3810       O  0.84155043  0.49597213  0.73927602    -0.40200
C3811       C  0.01805497  0.80240519  0.87767654    -0.12500
C3812       C  0.01145706  0.80669731  0.84832323     0.04500
C3813       C  0.98550668  0.79881652  0.84184131    -0.07800
C3814       C  0.96750270  0.79080422  0.86571154    -0.08500
C3815       C  0.97481605  0.78984125  0.89597452    -0.03100
C3816       C  0.99965678  0.79332873  0.90147435     0.03800
N3817       N  0.00716829  0.78989909  0.93140452     0.66300
H3818       H  0.03790955  0.80807058  0.88273609     0.15200
H3819       H  0.94815449  0.78700293  0.86084104     0.14900
N3820       N  0.97758051  0.80089154  0.81158427     0.74000
O3821       O  0.00540751  0.76856299  0.93829085    -0.39500
O3822       O  0.02027160  0.80931198  0.94818102    -0.39400
O3823       O  0.96993202  0.78191481  0.79364680    -0.40100
O3824       O  0.97135504  0.81778005  0.80619154    -0.40200
C3825       C  0.99287543  0.84126525  0.72609855    -0.12500
C3826       C  0.00188973  0.85711456  0.75203606     0.04500
C3827       C  0.98592531  0.86566902  0.76567763    -0.07800
C3828       C  0.96056634  0.85624353  0.75477113    -0.08500
C3829       C  0.95069654  0.83781589  0.73115026    -0.03100
C3830       C  0.96768025  0.83159760  0.71569661     0.03800
N3831       N  0.95951251  0.81509112  0.68946717     0.66300
H3832       H  0.00507679  0.83517764  0.71468103     0.15200
H3833       H  0.94808961  0.86189144  0.76625754     0.14900
N3834       N  0.99400373  0.88156560  0.79245989     0.74000
O3835       O  0.96409547  0.82511592  0.66304926    -0.39500
O3836       O  0.95404605  0.79189391  0.69237836    -0.39400
O3837       O  0.00108159  0.90522239  0.79002692    -0.40100
O3838       O  0.98879577  0.87115150  0.81870282    -0.40200
C3839       C  0.15210619  0.81274253  0.81640237    -0.12500
C3840       C  0.14312887  0.78918292  0.80094726     0.04500
C3841       C  0.12076849  0.78001970  0.78267249    -0.07800
C3842       C  0.10830253  0.79465297  0.77993439    -0.08500
C3843       C  0.11769930  0.81852501  0.79502713    -0.03100
C3844       C  0.13984174  0.82731549  0.81370432     0.03800
N3845       N  0.15040213  0.85109700  0.83021253     0.66300
H3846       H  0.16900013  0.82015511  0.83087328     0.15200
H3847       H  0.09153404  0.78752763  0.76531654     0.14900
N3848       N  0.11102716  0.75655056  0.76572247     0.74000
O3849       O  0.14427539  0.85083069  0.85803239    -0.39500
O3850       O  0.16970744  0.87099097  0.81933086    -0.39400
O3851       O  0.09224904  0.73613343  0.77641760    -0.40100
O3852       O  0.11682614  0.75751688  0.73767858    -0.40200
C3853       C  0.18675885  0.65761013  0.83126927    -0.12500
C3854       C  0.17314276  0.67019678  0.84037081     0.04500
C3855       C  0.15177147  0.65700318  0.86059235    -0.07800
C3856       C  0.14415139  0.63195503  0.87002359    -0.08500
C3857       C  0.15635673  0.61866230  0.85914859    -0.03100
C3858       C  0.17848967  0.63197590  0.84040554     0.03800
N3859       N  0.19165019  0.61933504  0.82872645     0.66300
H3860       H  0.20318120  0.66723503  0.81590865     0.15200
H3861       H  0.12716654  0.62215497  0.88454530     0.14900
N3862       N  0.13563300  0.66734044  0.86937252     0.74000
O3863       O  0.18556633  0.60857517  0.80279336    -0.39500
O3864       O  0.21245655  0.62353613  0.84104972    -0.39400
O3865       O  0.11861914  0.66556123  0.85089155    -0.40100
O3866       O  0.13337725  0.67114229  0.89743263    -0.40200
C3867       C  0.12742376  0.66342671  0.73988741    -0.12500
C3868       C  0.14137931  0.68975339  0.73243619     0.04500
C3869       C  0.14359172  0.69732699  0.70143489    -0.07800
C3870       C  0.13356425  0.67855413  0.67826556    -0.08500
C3871       C  0.12134468  0.65216301  0.68562999    -0.03100
C3872       C  0.11780511  0.64464087  0.71677773     0.03800
N3873       N  0.10719934  0.61816012  0.72524997     0.66300
H3874       H  0.12610043  0.65735791  0.76360994     0.15200
H3875       H  0.13682673  0.68461649  0.65441471     0.14900
N3876       N  0.15650786  0.72405562  0.69329436     0.74000
O3877       O  0.12231742  0.60964470  0.73061090    -0.39500
O3878       O  0.08420710  0.60570041  0.73490211    -0.39400
O3879       O  0.17914682  0.73483400  0.68243139    -0.40100
O3880       O  0.14608328  0.73738516  0.69944472    -0.40200
C3881       C  0.18382784  0.70493021  0.54868516    -0.12500
C3882       C  0.20786593  0.71945939  0.56299635     0.04500
C3883       C  0.21640421  0.70669913  0.58300171    -0.07800
C3884       C  0.19975924  0.68050462  0.59056800    -0.08500
C3885       C  0.17472297  0.66671935  0.57829836    -0.03100
C3886       C  0.16736917  0.67894839  0.55595493     0.03800
N3887       N  0.14290479  0.66555861  0.54094465     0.66300
H3888       H  0.17724475  0.71411696  0.53246606     0.15200
H3889       H  0.20580140  0.67150516  0.60767386     0.14900
N3890       N  0.24085094  0.72039542  0.59781995     0.74000
O3891       O  0.12441576  0.66807855  0.55087924    -0.39500
O3892       O  0.14197383  0.65761701  0.51388769    -0.39400
O3893       O  0.24157633  0.72537055  0.62606447    -0.40100
O3894       O  0.26031300  0.72123447  0.58522998    -0.40200
C3895       C  0.36975798  0.82460470  0.57684739    -0.12500
C3896       C  0.38088486  0.84264716  0.60050093     0.04500
C3897       C  0.36561830  0.85049202  0.61679814    -0.07800
C3898       C  0.33998429  0.84128970  0.60839313    -0.08500
C3899       C  0.32871953  0.82394158  0.58389812    -0.03100
C3900       C  0.34393510  0.81533142  0.56823528     0.03800
N3901       N  0.33422006  0.79860515  0.54229505     0.66300
H3902       H  0.38143706  0.81863574  0.56407432     0.15200
H3903       H  0.32927442  0.84874863  0.62046597     0.14900
N3904       N  0.37609232  0.86831631  0.64169976     0.74000
O3905       O  0.33708649  0.80826530  0.51579719    -0.39500
O3906       O  0.32829324  0.77526510  0.54506427    -0.39400
O3907       O  0.38191499  0.89151511  0.63765669    -0.40100
O3908       O  0.37415577  0.85980439  0.66868257    -0.40200
C3909       C  0.24605685  0.79389376  0.69886207    -0.12500
C3910       C  0.22615217  0.79444849  0.71539788     0.04500
C3911       C  0.21087893  0.80315619  0.70059612    -0.07800
C3912       C  0.21401494  0.80842922  0.66899522    -0.08500
C3913       C  0.23309500  0.80652292  0.65240518    -0.03100
C3914       C  0.24987206  0.80026265  0.66774561     0.03800
N3915       N  0.27065786  0.79988768  0.65194700     0.66300
H3916       H  0.25843516  0.78797488  0.70999460     0.15200
H3917       H  0.20141536  0.81376739  0.65737484     0.14900
N3918       N  0.19171132  0.80606142  0.71694138     0.74000
O3919       O  0.29346835  0.81761162  0.65704221    -0.39500
O3920       O  0.26691133  0.77931169  0.63935758    -0.39400
O3921       O  0.19768165  0.82776864  0.72822547    -0.40100
O3922       O  0.16819715  0.78951364  0.71354771    -0.40200
C3923       C  0.20489145  0.75264955  0.94923592    -0.12500
C3924       C  0.20517218  0.77331984  0.96494367     0.04500
C3925       C  0.19793379  0.78933150  0.94901491    -0.07800
C3926       C  0.19291383  0.78577525  0.91738328    -0.08500
C3927       C  0.19397880  0.76589387  0.90164633    -0.03100
C3928       C  0.19920131  0.74868227  0.91795393     0.03800
N3929       N  0.19936481  0.72739374  0.90312030     0.66300
H3930       H  0.20998416  0.73991123  0.96111521     0.15200
H3931       H  0.18842711  0.79873789  0.90499089     0.14900
N3932       N  0.19615461  0.80957323  0.96423695     0.74000
O3933       O  0.21799022  0.73141357  0.88583641    -0.39500
O3934       O  0.18455628  0.70480143  0.91290072    -0.39400
O3935       O  0.21117195  0.83272218  0.95644198    -0.40100
O3936       O  0.17582879  0.80408270  0.97901273    -0.40200
C3937       C  0.00815590  0.83438988  0.51495085    -0.12500
C3938       C  0.99316173  0.84516525  0.50570904     0.04500
C3939       C  0.00463389  0.87241680  0.50552464    -0.07800
C3940       C  0.03071500  0.88809019  0.51424341    -0.08500
C3941       C  0.04589975  0.87703870  0.52200503    -0.03100
C3942       C  0.03410754  0.84975589  0.52250899     0.03800
N3943       N  0.04824543  0.83703209  0.53011118     0.66300
H3944       H  0.00006457  0.81363622  0.51488996     0.15200
H3945       H  0.03933612  0.90888975  0.51379754     0.14900
N3946       N  0.99891962  0.88211314  0.97634580     0.74000
O3947       O  0.04781039  0.82980732  0.55739444    -0.39500
O3948       O  0.05443080  0.82670412  0.50898534    -0.39400
O3949       O  0.98077762  0.89227599  0.51726029    -0.40100
O3950       O  0.00284569  0.88375141  0.94772145    -0.40200
C3951       C  0.18185278  0.87354963  0.56976270    -0.12500
C3952       C  0.18892954  0.89147943  0.54564273     0.04500
C3953       C  0.21078768  0.89674573  0.52752543    -0.07800
C3954       C  0.22398062  0.88305732  0.53279379    -0.08500
C3955       C  0.21563141  0.86393245  0.55570553    -0.03100
C3956       C  0.19475660  0.85984380  0.57482925     0.03800
N3957       N  0.18628228  0.84175444  0.59968383     0.66300
H3958       H  0.16567858  0.86957386  0.58458797     0.15200
H3959       H  0.23993328  0.88646033  0.51790292     0.14900
N3960       N  0.21898857  0.91472934  0.50262440     0.74000
O3961       O  0.19522002  0.84958058  0.62617228    -0.39500
O3962       O  0.16600691  0.82011559  0.59674665    -0.39400
O3963       O  0.23857930  0.93684053  0.50581610    -0.40100
O3964       O  0.21032931  0.90679440  0.47605865    -0.40200
C3965       C  0.14969213  0.91737718  0.91887675    -0.12500
C3966       C  0.13394536  0.89970607  0.94157003     0.04500
C3967       C  0.11047560  0.87781541  0.93278790    -0.07800
C3968       C  0.10236725  0.87519598  0.90239355    -0.08500
C3969       C  0.11727677  0.89374018  0.88016100    -0.03100
C3970       C  0.14170578  0.91443742  0.88826760     0.03800
N3971       N  0.15778683  0.93368874  0.86641126     0.66300
H3972       H  0.16785839  0.93414522  0.92509941     0.15200
H3973       H  0.08385989  0.85879246  0.89632684     0.14900
N3974       N  0.09356829  0.85905550  0.95464630     0.74000
O3975       O  0.15811346  0.95495185  0.86603055    -0.39500
O3976       O  0.17603347  0.93218669  0.85378354    -0.39400
O3977       O  0.07338698  0.85917142  0.96300500    -0.40100
O3978       O  0.09519235  0.83905998  0.95914087    -0.40200
C3979       C  0.07579665  0.86240569  0.67130174    -0.12500
C3980       C  0.09737820  0.87055866  0.69045091     0.04500
C3981       C  0.12237432  0.88600743  0.67778474    -0.07800
C3982       C  0.12514414  0.89408547  0.64720537    -0.08500
C3983       C  0.10349803  0.88690565  0.62882489    -0.03100
C3984       C  0.07864306  0.87048468  0.64074578     0.03800
N3985       N  0.05601626  0.86261365  0.62272855     0.66300
H3986       H  0.05642984  0.85055461  0.68031168     0.15200
H3987       H  0.14431743  0.90624076  0.63781821     0.14900
N3988       N  0.14516302  0.89378927  0.69545003     0.74000
O3989       O  0.04171134  0.83891595  0.61701419    -0.39500
O3990       O  0.04661563  0.87734772  0.62096974    -0.39400
O3991       O  0.15761610  0.88202615  0.69205849    -0.40100
O3992       O  0.15582893  0.91550859  0.70850771    -0.40200
C3993       C  0.49904540  0.16594987  0.63454043    -0.12500
C3994       C  0.50802732  0.18391274  0.65866477     0.04500
C3995       C  0.53333574  0.19275085  0.66967902    -0.07800
C3996       C  0.54772746  0.18152814  0.65880549    -0.08500
C3997       C  0.53730067  0.16156537  0.63705919    -0.03100
C3998       C  0.51313331  0.15461374  0.62403429     0.03800
N3999       N  0.50231410  0.13582268  0.60017970     0.66300
H4000       H  0.48012891  0.15928547  0.62479785     0.15200
H4001       H  0.56648360  0.18747105  0.66859325     0.14900
N4002       N  0.54450105  0.21254564  0.69234631     0.74000
O4003       O  0.48706155  0.11252035  0.60723692    -0.39500
O4004       O  0.50187523  0.14339808  0.57325746    -0.39400
O4005       O  0.54604750  0.20662002  0.71975176    -0.40100
O4006       O  0.55757214  0.23581821  0.68386643    -0.40200
C4007       C  0.21134976  0.02946641  0.62121567    -0.12500
C4008       C  0.20495446  0.01946618  0.65110984     0.04500
C4009       C  0.19291249  0.99261251  0.65593941    -0.07800
C4010       C  0.18452147  0.97609885  0.63059796    -0.08500
C4011       C  0.18846088  0.98619020  0.60076228    -0.03100
C4012       C  0.20323036  0.01299668  0.59596479     0.03800
N4013       N  0.20776498  0.02383318  0.56576775     0.66300
H4014       H  0.22072677  0.05012245  0.61741774     0.15200
H4015       H  0.17301230  0.95547407  0.63427861     0.14900
N4016       N  0.18609625  0.98179649  0.68611177     0.74000
O4017       O  0.19281823  0.03106423  0.55508632    -0.39500
O4018       O  0.22956771  0.03180158  0.55332184    -0.39400
O4019       O  0.16340651  0.97353081  0.69596935    -0.40100
O4020       O  0.20064377  0.97542765  0.69979757    -0.40200
C4021       C  0.34246888  0.14517582  0.68011698    -0.12500
C4022       C  0.35745308  0.14090324  0.70139699     0.04500
C4023       C  0.34483361  0.12112725  0.72356237    -0.07800
C4024       C  0.31766261  0.10755956  0.72546123    -0.08500
C4025       C  0.30288206  0.11313767  0.70524694    -0.03100
C4026       C  0.31554422  0.13142192  0.68169480     0.03800
N4027       N  0.30133254  0.13563022  0.65841691     0.66300
H4028       H  0.35175007  0.15957079  0.66222781     0.15200
H4029       H  0.30819306  0.09361353  0.74372601     0.14900
N4030       N  0.35913345  0.11584879  0.74569567     0.74000
O4031       O  0.29785792  0.15473295  0.66055951    -0.39500
O4032       O  0.29909331  0.12519006  0.63258063    -0.39400
O4033       O  0.35883842  0.12203158  0.77330999    -0.40100
O4034       O  0.36562734  0.09924073  0.73958337    -0.40200
C4035       C  0.12951357  0.99048220  0.74108001    -0.12500
C4036       C  0.15101804  0.00681810  0.75926282     0.04500
C4037       C  0.15381628  0.99746827  0.78803156    -0.07800
C4038       C  0.13648571  0.97186289  0.79676472    -0.08500
C4039       C  0.11656404  0.95514025  0.77723627    -0.03100
C4040       C  0.11265811  0.96476955  0.74959950     0.03800
N4041       N  0.09245530  0.94830113  0.72918762     0.66300
H4042       H  0.12674254  0.99700179  0.71900020     0.15200
H4043       H  0.13962718  0.96452475  0.81791409     0.14900
N4044       N  0.17476972  0.01311032  0.80802608     0.74000
O4045       O  0.07121239  0.94801646  0.73010138    -0.39500
O4046       O  0.09750028  0.93826874  0.70665079    -0.39400
O4047       O  0.17095982  0.02427608  0.83034222    -0.40100
O4048       O  0.19442412  0.01044647  0.80805663    -0.40200
C4049       C  0.47781968  0.84697124  0.87745959    -0.12500
C4050       C  0.45255400  0.83512825  0.86593012     0.04500
C4051       C  0.44360033  0.81229283  0.84865587    -0.07800
C4052       C  0.46117044  0.80437632  0.83920735    -0.08500
C4053       C  0.48739185  0.81821876  0.84782359    -0.03100
C4054       C  0.49508328  0.83872365  0.86899226     0.03800
N4055       N  0.52072282  0.85251300  0.88095829     0.66300
H4056       H  0.48477144  0.86375995  0.89211710     0.15200
H4057       H  0.45440525  0.78784705  0.82420197     0.14900
N4058       N  0.41712766  0.79729154  0.83990136     0.74000
O4059       O  0.53724697  0.87311290  0.86791184    -0.39500
O4060       O  0.52469416  0.84804977  0.90811832    -0.39400
O4061       O  0.41143882  0.79368061  0.81179801    -0.40100
O4062       O  0.40082060  0.78243337  0.85949031    -0.40200
C4063       C  0.42987497  0.91182002  0.75085858    -0.12500
C4064       C  0.42852857  0.89351718  0.77199308     0.04500
C4065       C  0.42920128  0.87166357  0.76148897    -0.07800
C4066       C  0.43240757  0.86891770  0.73040248    -0.08500
C4067       C  0.43514452  0.88774819  0.70901042    -0.03100
C4068       C  0.43328184  0.90919699  0.71943937     0.03800
N4069       N  0.43539884  0.92875672  0.69882753     0.66300
H4070       H  0.42898820  0.92850962  0.75883390     0.15200
H4071       H  0.43300723  0.85189999  0.72317818     0.14900
N4072       N  0.42562333  0.85150017  0.78204588     0.74000
O4073       O  0.41510217  0.92757164  0.68867419    -0.39500
O4074       O  0.45648195  0.94980021  0.69697379    -0.39400
O4075       O  0.40312823  0.83283613  0.78670937    -0.40100
O4076       O  0.44486454  0.84957924  0.79001423    -0.40200
C4077       C  0.47214855  0.92305002  0.50295888    -0.12500
C4078       C  0.46888718  0.90185774  0.52045776     0.04500
C4079       C  0.46374704  0.88221150  0.00572387    -0.07800
C4080       C  0.45601506  0.87929527  0.97520597    -0.08500
C4081       C  0.45524529  0.89921601  0.95920282    -0.03100
C4082       C  0.46360838  0.92311914  0.97396425     0.03800
N4083       N  0.46287032  0.94384595  0.95848809     0.66300
H4084       H  0.48005531  0.94188925  0.51354267     0.15200
H4085       H  0.44947358  0.86074605  0.96432567     0.14900
N4086       N  0.45157228  0.85472089  0.52430898     0.74000
O4087       O  0.44159590  0.94311913  0.95476044    -0.39500
O4088       O  0.48283425  0.96103697  0.94500329    -0.39400
O4089       O  0.43123850  0.84493460  0.54040609    -0.40100
O4090       O  0.47397918  0.84994474  0.01348675    -0.40200
C4091       C  0.33654195  0.87210456  0.99038679    -0.12500
C4092       C  0.31049079  0.85741683  0.98227085     0.04500
C4093       C  0.30357043  0.85410029  0.95110985    -0.07800
C4094       C  0.32279785  0.86300364  0.92847923    -0.08500
C4095       C  0.34890983  0.87505639  0.93672580    -0.03100
C4096       C  0.35583458  0.88064605  0.96789421     0.03800
N4097       N  0.38226364  0.89373656  0.97723967     0.66300
H4098       H  0.34185889  0.86663184  0.51688208     0.15200
H4099       H  0.31725555  0.85879716  0.90458749     0.14900
N4100       N  0.27702862  0.84101013  0.94240852     0.74000
O4101       O  0.39291352  0.88070747  0.98390294    -0.39500
O4102       O  0.39225758  0.91671298  0.98659055    -0.39400
O4103       O  0.26293390  0.85026313  0.95003773    -0.40100
O4104       O  0.26695321  0.81878899  0.93069813    -0.40200
C4105       C  0.31579092  0.80012808  0.85522848    -0.12500
C4106       C  0.33353851  0.81823264  0.83425253     0.04500
C4107       C  0.32519813  0.81848222  0.80398550    -0.07800
C4108       C  0.29915556  0.80231794  0.79621005    -0.08500
C4109       C  0.28105736  0.78578611  0.81804295    -0.03100
C4110       C  0.28972327  0.78436411  0.84760415     0.03800
N4111       N  0.27196688  0.76971693  0.87143569     0.66300
H4112       H  0.32154628  0.79984017  0.87869750     0.15200
H4113       H  0.29275969  0.80364963  0.77340054     0.14900
N4114       N  0.34263815  0.83553286  0.78113101     0.74000
O4115       O  0.27306809  0.75095512  0.88307252    -0.39500
O4116       O  0.26137009  0.77998013  0.88648467    -0.39400
O4117       O  0.35269439  0.82709604  0.76222811    -0.40100
O4118       O  0.34326140  0.85654943  0.77550385    -0.40200
C4119       C  0.62706055  0.18815658  0.89906839    -0.12500
C4120       C  0.60855271  0.16245866  0.90686425     0.04500
C4121       C  0.61569956  0.14866051  0.92709105    -0.07800
C4122       C  0.64103755  0.15945742  0.93667651    -0.08500
C4123       C  0.66013303  0.18378370  0.92650407    -0.03100
C4124       C  0.65292022  0.19901624  0.90909192     0.03800
N4125       N  0.67151122  0.22502618  0.90113530     0.66300
H4126       H  0.62175277  0.19928782  0.88426351     0.15200
H4127       H  0.64605075  0.14820975  0.95155770     0.14900
N4128       N  0.59762852  0.12326375  0.93785802     0.74000
O4129       O  0.68567402  0.22962239  0.87773881    -0.39500
O4130       O  0.67635864  0.24296661  0.91986347    -0.39400
O4131       O  0.59613166  0.10404826  0.92394917    -0.40100
O4132       O  0.58964549  0.12043172  0.96524178    -0.40200
C4133       C  0.44662520  0.01265766  0.87395176    -0.12500
C4134       C  0.47370419  0.02609673  0.87659270     0.04500
C4135       C  0.48680692  0.01186043  0.87477429    -0.07800
C4136       C  0.47296932  0.98519468  0.87124495    -0.08500
C4137       C  0.44594415  0.97152393  0.86907003    -0.03100
C4138       C  0.43268363  0.98557950  0.87032827     0.03800
N4139       N  0.40524389  0.97288281  0.86766098     0.66300
H4140       H  0.43618144  0.02309458  0.87518995     0.15200
H4141       H  0.48381840  0.97514277  0.87035959     0.14900
N4142       N  0.51435259  0.02401667  0.87620547     0.74000
O4143       O  0.39154990  0.96713650  0.89167170    -0.39500
O4144       O  0.39538378  0.97290077  0.84211398    -0.39400
O4145       O  0.52484181  0.02344816  0.90105238    -0.40100
O4146       O  0.52729606  0.02965706  0.85159237    -0.40200
C4147       C  0.51568259  0.10039706  0.53300058    -0.12500
C4148       C  0.53349633  0.09306951  0.54214401     0.04500
C4149       C  0.54187366  0.08106004  0.52100030    -0.07800
C4150       C  0.51647596  0.07850487  0.99831537    -0.08500
C4151       C  0.52579724  0.10035241  0.97947459    -0.03100
C4152       C  0.54062977  0.12513165  0.99185192     0.03800
N4153       N  0.55071875  0.14778982  0.97301519     0.66300
H4154       H  0.50875722  0.10899223  0.54930337     0.15200
H4155       H  0.50515820  0.05941958  0.98853942     0.14900
N4156       N  0.56026351  0.07365992  0.52945063     0.74000
O4157       O  0.53895129  0.16034540  0.97202041    -0.39500
O4158       O  0.57404305  0.15873656  0.96458079    -0.39400
O4159       O  0.55247210  0.05060682  0.53738881    -0.40100
O4160       O  0.58341901  0.08776020  0.52110602    -0.40200
C4161       C  0.57507802  0.12114036  0.77900906    -0.12500
C4162       C  0.55157120  0.10421693  0.79319965     0.04500
C4163       C  0.53129074  0.08489321  0.77572943    -0.07800
C4164       C  0.53448287  0.08382233  0.74396898    -0.08500
C4165       C  0.55798582  0.10110354  0.72981405    -0.03100
C4166       C  0.57856923  0.11947163  0.74765609     0.03800
N4167       N  0.60288163  0.13727648  0.73416337     0.66300
H4168       H  0.59069500  0.13604387  0.79227621     0.15200
H4169       H  0.51876765  0.06934977  0.73042623     0.14900
N4170       N  0.50722396  0.06679897  0.78967018     0.74000
O4171       O  0.60624017  0.15843157  0.72368371    -0.39500
O4172       O  0.62228599  0.13500062  0.74011325    -0.39400
O4173       O  0.48754379  0.06894046  0.78520152    -0.40100
O4174       O  0.50435189  0.04581566  0.80007142    -0.40200
C4175       C  0.44874594  0.14529030  0.79648274    -0.12500
C4176       C  0.45514369  0.14297287  0.76613137     0.04500
C4177       C  0.46788920  0.12907942  0.75972259    -0.07800
C4178       C  0.47672216  0.12040749  0.78404156    -0.08500
C4179       C  0.47234108  0.12482008  0.81451017    -0.03100
C4180       C  0.45719005  0.13627128  0.82077565     0.03800
N4181       N  0.45399668  0.14285851  0.85139125     0.66300
H4182       H  0.43937635  0.15634192  0.80148299     0.15200
H4183       H  0.48884838  0.11222674  0.77913318     0.14900
N4184       N  0.47510387  0.12675549  0.72906124     0.74000
O4185       O  0.47004429  0.16482280  0.86170879    -0.39500
O4186       O  0.43243433  0.12988305  0.86468816    -0.39400
O4187       O  0.49724674  0.14299032  0.71909071    -0.40100
O4188       O  0.46183664  0.10589093  0.71471101    -0.40200
C4189       C  0.48166904  0.18852029  0.95739003    -0.12500
C4190       C  0.48837053  0.21069219  0.93977360     0.04500
C4191       C  0.50542946  0.21654983  0.91480101    -0.07800
C4192       C  0.51430009  0.19950550  0.90693913    -0.08500
C4193       C  0.50582724  0.17606437  0.92299633    -0.03100
C4194       C  0.49001990  0.17120034  0.94930791     0.03800
N4195       N  0.48118500  0.14831888  0.96743659     0.66300
H4196       H  0.46878181  0.18394020  0.97690237     0.15200
H4197       H  0.52626989  0.20376192  0.88662788     0.14900
N4198       N  0.51151933  0.23797512  0.89508191     0.74000
O4199       O  0.49071117  0.15005500  0.99372050    -0.39500
O4200       O  0.45972701  0.12871848  0.96122356    -0.39400
O4201       O  0.53395803  0.25741277  0.89544783    -0.40100
O4202       O  0.49668072  0.23509320  0.87304580    -0.40200
C4203       C  0.49742288  0.34600918  0.89630136    -0.12500
C4204       C  0.50648909  0.33322936  0.91507004     0.04500
C4205       C  0.53271338  0.34681951  0.92421936    -0.07800
C4206       C  0.54867549  0.37297242  0.91565887    -0.08500
C4207       C  0.53879954  0.38611423  0.89862116    -0.03100
C4208       C  0.51274388  0.37201453  0.88874519     0.03800
N4209       N  0.50066048  0.38397713  0.87256309     0.66300
H4210       H  0.47743467  0.33635130  0.88908292     0.15200
H4211       H  0.56851354  0.38328875  0.92344126     0.14900
N4212       N  0.54311568  0.33477597  0.94324455     0.74000
O4213       O  0.49045987  0.39454370  0.88781866    -0.39500
O4214       O  0.49355085  0.37738265  0.84523434    -0.39400
O4215       O  0.54696185  0.31741131  0.93235795    -0.40100
O4216       O  0.54591964  0.33955332  0.97163288    -0.40200
C4217       C  0.40922355  0.21161860  0.84277940    -0.12500
C4218       C  0.42711014  0.23527862  0.85583929     0.04500
C4219       C  0.44741225  0.25399122  0.83771486    -0.07800
C4220       C  0.45012307  0.24838183  0.80726862    -0.08500
C4221       C  0.43246169  0.22462071  0.79418332    -0.03100
C4222       C  0.41154992  0.20628199  0.81199680     0.03800
N4223       N  0.39412741  0.18124516  0.80024742     0.66300
H4224       H  0.39389983  0.19694764  0.85679954     0.15200
H4225       H  0.46650433  0.26241506  0.79402093     0.14900
N4226       N  0.46644253  0.27805697  0.85041983     0.74000
O4227       O  0.39905275  0.16326784  0.80440545    -0.39500
O4228       O  0.37150085  0.17574430  0.79315977    -0.39400
O4229       O  0.48779193  0.28071734  0.85891598    -0.40100
O4230       O  0.46447356  0.29787356  0.84612708    -0.40200
C4231       C  0.45964660  0.22811743  0.56304012    -0.12500
C4232       C  0.43808077  0.21823905  0.54370456     0.04500
C4233       C  0.41344042  0.20043122  0.55572678    -0.07800
C4234       C  0.41081416  0.19358596  0.58689316    -0.08500
C4235       C  0.43233413  0.20455331  0.60618730    -0.03100
C4236       C  0.45695308  0.22147521  0.59400970     0.03800
N4237       N  0.47949352  0.23187214  0.61276850     0.66300
H4238       H  0.47875346  0.24141779  0.55419631     0.15200
H4239       H  0.39185465  0.18051431  0.59628139     0.14900
N4240       N  0.39074428  0.19056916  0.53733209     0.74000
O4241       O  0.49293107  0.22097937  0.61302004    -0.39500
O4242       O  0.48916160  0.25469576  0.62254514    -0.39400
O4243       O  0.38003477  0.16751313  0.52809829    -0.40100
O4244       O  0.37848453  0.20267053  0.53624008    -0.40200
C4245       C  0.16528792  0.01102109  0.97192898    -0.12500
C4246       C  0.14802150  0.00051750  0.99677359     0.04500
C4247       C  0.14006190  0.01960141  0.51604852    -0.07800
C4248       C  0.15008884  0.04534236  0.50611266    -0.08500
C4249       C  0.16669169  0.05222886  0.97749864    -0.03100
C4250       C  0.17466781  0.03655166  0.96233745     0.03800
N4251       N  0.19331901  0.04669679  0.93803527     0.66300
H4252       H  0.17253982  0.99970577  0.96077303     0.15200
H4253       H  0.14759317  0.05873374  0.52045099     0.14900
N4254       N  0.12713490  0.01201598  0.54508403     0.74000
O4255       O  0.21687659  0.05542977  0.94403572    -0.39500
O4256       O  0.18583902  0.04173429  0.91056501    -0.39400
O4257       O  0.14022440  0.01864491  0.56943726    -0.40100
O4258       O  0.10324175  0.00411207  0.54650901    -0.40200
C4259       C  0.31326914  0.21582064  0.96872611    -0.12500
C4260       C  0.29901091  0.19221968  0.95304747     0.04500
C4261       C  0.31259413  0.18322705  0.93486769    -0.07800
C4262       C  0.33947821  0.19709374  0.93374560    -0.08500
C4263       C  0.35378274  0.21989593  0.95057290    -0.03100
C4264       C  0.34044443  0.22964681  0.96767803     0.03800
N4265       N  0.35406311  0.25253897  0.98562664     0.66300
H4266       H  0.30339490  0.22308527  0.98290047     0.15200
H4267       H  0.34926799  0.18948075  0.91995586     0.14900
N4268       N  0.29963097  0.15952423  0.91815695     0.74000
O4269       O  0.35739927  0.27369568  0.97519708    -0.39500
O4270       O  0.35776049  0.25065988  0.01378211    -0.39400
O4271       O  0.29646172  0.16012414  0.88960784    -0.40100
O4272       O  0.29681902  0.13907800  0.93026928    -0.40200
C4273       C  0.13908457  0.18458350  0.53812938    -0.12500
C4274       C  0.11500474  0.17486357  0.52384631     0.04500
C4275       C  0.10667524  0.15375970  0.50367659    -0.07800
C4276       C  0.12346076  0.14436544  0.49614140    -0.08500
C4277       C  0.14863569  0.15599691  0.50815616    -0.03100
C4278       C  0.15584334  0.17549406  0.53054799     0.03800
N4279       N  0.18062528  0.18719657  0.54488749     0.66300
H4280       H  0.14553795  0.20033874  0.55433179     0.15200
H4281       H  0.11656567  0.12648987  0.97446883     0.14900
N4282       N  0.08247305  0.14342436  0.48832963     0.74000
O4283       O  0.19850323  0.20854025  0.53483828    -0.39500
O4284       O  0.17427938  0.16552788  0.07529784    -0.39400
O4285       O  0.08171818  0.15102976  0.46152109    -0.40100
O4286       O  0.06136644  0.11959516  0.99315669    -0.40200
C4287       C  0.20644553  0.13189555  0.57550616    -0.12500
C4288       C  0.22975377  0.13896594  0.56021887     0.04500
C4289       C  0.24923089  0.13676352  0.57551367    -0.07800
C4290       C  0.24526250  0.12791499  0.60593912    -0.08500
C4291       C  0.22164098  0.12009384  0.62100807    -0.03100
C4292       C  0.20192740  0.12185064  0.60530945     0.03800
N4293       N  0.17695609  0.11289581  0.61868172     0.66300
H4294       H  0.19113409  0.13287966  0.56368294     0.15200
H4295       H  0.25991583  0.12639303  0.61715934     0.14900
N4296       N  0.27321640  0.14358472  0.56074279     0.74000
O4297       O  0.16964868  0.12893142  0.62448287    -0.39500
O4298       O  0.16018564  0.08929139  0.61642018    -0.39400
O4299       O  0.29282073  0.16519583  0.56638045    -0.40100
O4300       O  0.27617967  0.12613639  0.54840238    -0.40200
C4301       C  0.23128605  0.10013785  0.86417061    -0.12500
C4302       C  0.21771103  0.11331611  0.86986939     0.04500
C4303       C  0.21172907  0.12447489  0.84489079    -0.07800
C4304       C  0.21919792  0.12224328  0.81530514    -0.08500
C4305       C  0.23211516  0.10852596  0.80937685    -0.03100
C4306       C  0.23833764  0.09748574  0.83423058     0.03800
N4307       N  0.25204376  0.08385353  0.82966940     0.66300
H4308       H  0.23634446  0.09169111  0.88297507     0.15200
H4309       H  0.21378210  0.13054737  0.79666297     0.14900
N4310       N  0.19825967  0.13841696  0.84886908     0.74000
O4311       O  0.27638689  0.09604618  0.83092746    -0.39500
O4312       O  0.24005452  0.05954102  0.83172342    -0.39400
O4313       O  0.21051158  0.16264317  0.84583370    -0.40100
O4314       O  0.17392852  0.12646716  0.84725316    -0.40200
C4315       C  0.44181688  0.62361882  0.58238409    -0.12500
C4316       C  0.44808640  0.61444478  0.60870703     0.04500
C4317       C  0.46990148  0.63158133  0.62588561    -0.07800
C4318       C  0.48630633  0.65660108  0.61518892    -0.08500
C4319       C  0.48118630  0.66569492  0.58789827    -0.03100
C4320       C  0.45816406  0.64902618  0.57177986     0.03800
N4321       N  0.45238737  0.65647689  0.54304689     0.66300
H4322       H  0.42536618  0.61051756  0.56874349     0.15200
H4323       H  0.50386451  0.66838656  0.62760107     0.14900
N4324       N  0.47619111  0.62354300  0.65391177     0.74000
O4325       O  0.46050704  0.65171001  0.51850094    -0.39500
O4326       O  0.43505644  0.66262354  0.54182732    -0.39400
O4327       O  0.49411933  0.61820206  0.65411574    -0.40100
O4328       O  0.46808419  0.62741721  0.67902873    -0.40200
C4329       C  0.31822012  0.52186601  0.59314215    -0.12500
C4330       C  0.33139069  0.50954873  0.58154851     0.04500
C4331       C  0.31885709  0.49008125  0.55911926    -0.07800
C4332       C  0.29319997  0.48162730  0.55148433    -0.08500
C4333       C  0.27936891  0.49240493  0.56489164    -0.03100
C4334       C  0.29252857  0.51369656  0.58469290     0.03800
N4335       N  0.27979304  0.52627490  0.59779662     0.66300
H4336       H  0.32743868  0.53715569  0.60986410     0.15200
H4337       H  0.28375049  0.46583110  0.53544665     0.14900
N4338       N  0.33127547  0.47761753  0.54479162     0.74000
O4339       O  0.26860143  0.51879172  0.62346331    -0.39500
O4340       O  0.28460372  0.54793417  0.58734768    -0.39400
O4341       O  0.32559624  0.45520666  0.55336200    -0.40100
O4342       O  0.34304166  0.48629802  0.51962489    -0.40200
C4343       C  0.45930095  0.53881611  0.97764062    -0.12500
C4344       C  0.43962629  0.53751403  0.95898283     0.04500
C4345       C  0.41499821  0.52922964  0.97192073    -0.07800
C4346       C  0.41276841  0.53789590  0.51010083    -0.08500
C4347       C  0.42741162  0.52816935  0.52327927    -0.03100
C4348       C  0.45519125  0.53382872  0.00931755     0.03800
N4349       N  0.46039386  0.51514354  0.51810056     0.66300
H4350       H  0.47829446  0.54513521  0.96797551     0.15200
H4351       H  0.39972541  0.54117975  0.52431095     0.14900
N4352       N  0.39408161  0.52631527  0.95321668     0.74000
O4353       O  0.47872680  0.51605679  0.02968647    -0.39500
O4354       O  0.48354980  0.53120955  0.52455683    -0.39400
O4355       O  0.38628536  0.51049729  0.93123442    -0.40100
O4356       O  0.38471253  0.54091421  0.95715278    -0.40200
C4357       C  0.44430574  0.57180654  0.72948175    -0.12500
C4358       C  0.45247253  0.55836416  0.71020722     0.04500
C4359       C  0.46941460  0.55043160  0.72224058    -0.07800
C4360       C  0.47674291  0.55505657  0.75324715    -0.08500
C4361       C  0.46742834  0.56743753  0.77238112    -0.03100
C4362       C  0.45136135  0.57608647  0.76024803     0.03800
N4363       N  0.44143883  0.58871375  0.77914876     0.66300
H4364       H  0.43164677  0.57847165  0.72100979     0.15200
H4365       H  0.48905598  0.54829710  0.76258140     0.14900
N4366       N  0.47878017  0.53707945  0.70377508     0.74000
O4367       O  0.45185437  0.61296943  0.77786595    -0.39500
O4368       O  0.41912034  0.57568675  0.79065288    -0.39400
O4369       O  0.50145772  0.54925128  0.69306618    -0.40100
O4370       O  0.46684606  0.51271349  0.70387501    -0.40200
C4371       C  0.65760148  0.49717909  0.64351744    -0.12500
C4372       C  0.66684526  0.49229579  0.67087055     0.04500
C4373       C  0.65023435  0.46957324  0.68776603    -0.07800
C4374       C  0.62496118  0.45299361  0.67757761    -0.08500
C4375       C  0.61567678  0.45879619  0.65111822    -0.03100
C4376       C  0.63222015  0.48096517  0.63387647     0.03800
N4377       N  0.62293103  0.48840373  0.60783644     0.66300
H4378       H  0.66956568  0.51447672  0.63038785     0.15200
H4379       H  0.61208859  0.43634482  0.69134873     0.14900
N4380       N  0.65779788  0.46403172  0.71655176     0.74000
O4381       O  0.61336504  0.50284895  0.61165548    -0.39500
O4382       O  0.62956747  0.48561405  0.58120953    -0.39400
O4383       O  0.65201793  0.47127649  0.74106598    -0.40100
O4384       O  0.66500491  0.44749191  0.71777980    -0.40200
C4385       C  0.53215642  0.41754512  0.74961539    -0.12500
C4386       C  0.52940232  0.43609375  0.73296618     0.04500
C4387       C  0.53423053  0.45909398  0.74770375    -0.07800
C4388       C  0.54124593  0.46281760  0.77879574    -0.08500
C4389       C  0.54507730  0.44465683  0.79494528    -0.03100
C4390       C  0.54060566  0.42184249  0.77989929     0.03800
N4391       N  0.54530620  0.40310238  0.79443731     0.66300
H4392       H  0.52914559  0.40004599  0.73850764     0.15200
H4393       H  0.54500309  0.48056489  0.78986865     0.14900
N4394       N  0.53259978  0.47899695  0.73147693     0.74000
O4395       O  0.56795025  0.40659445  0.79409805    -0.39500
O4396       O  0.52664750  0.38053387  0.79866922    -0.39400
O4397       O  0.51330119  0.48188079  0.73577117    -0.40100
O4398       O  0.55270941  0.49704137  0.71917221    -0.40200
C4399       C  0.53996121  0.44630263  0.99083215    -0.12500
C4400       C  0.56216229  0.46967981  0.98317124     0.04500
C4401       C  0.57796584  0.48427273  0.50616829    -0.07800
C4402       C  0.57387005  0.47512989  0.53654119    -0.08500
C4403       C  0.55641783  0.44905783  0.54325035    -0.03100
C4404       C  0.54223687  0.43227330  0.51918445     0.03800
N4405       N  0.52273856  0.40613325  0.52478197     0.66300
H4406       H  0.52601829  0.43483381  0.97351214     0.15200
H4407       H  0.58472942  0.48833534  0.55479772     0.14900
N4408       N  0.60246083  0.50839225  0.00066052     0.74000
O4409       O  0.49957868  0.40089726  0.52685400    -0.39500
O4410       O  0.52755103  0.38820764  0.51942335    -0.39400
O4411       O  0.60296935  0.52925127  0.00690920    -0.40100
O4412       O  0.61999891  0.51751415  0.49758511    -0.40200
C4413       C  0.45915302  0.35101107  0.55439854    -0.12500
C4414       C  0.47188430  0.34580804  0.57797194     0.04500
C4415       C  0.47196026  0.32231147  0.57772350    -0.07800
C4416       C  0.46301976  0.30642152  0.55213399    -0.08500
C4417       C  0.45403887  0.31353829  0.52642696    -0.03100
C4418       C  0.45056383  0.33516799  0.52818794     0.03800
N4419       N  0.44537330  0.34282726  0.99637817     0.66300
H4420       H  0.45814063  0.36857238  0.55494664     0.15200
H4421       H  0.46484622  0.28928414  0.55150141     0.14900
N4422       N  0.48287072  0.31521538  0.60235634     0.74000
O4423       O  0.46324297  0.35556913  0.97725122    -0.39500
O4424       O  0.42399019  0.34203698  0.99354692    -0.39400
O4425       O  0.50377599  0.31532210  0.59789646    -0.40100
O4426       O  0.46877808  0.30284249  0.62493199    -0.40200
C4427       C  0.45380275  0.44206571  0.64554054    -0.12500
C4428       C  0.47458449  0.44832051  0.62534161     0.04500
C4429       C  0.47965569  0.46623616  0.60144140    -0.07800
C4430       C  0.46536539  0.47881460  0.59961488    -0.08500
C4431       C  0.44558979  0.47364501  0.62080387    -0.03100
C4432       C  0.43920286  0.45445405  0.64333075     0.03800
N4433       N  0.41909355  0.44844483  0.66523330     0.66300
H4434       H  0.44949632  0.42828673  0.66392393     0.15200
H4435       H  0.46998855  0.49299022  0.58160949     0.14900
N4436       N  0.49905228  0.47178097  0.57863172     0.74000
O4437       O  0.39673050  0.42976918  0.66023443    -0.39500
O4438       O  0.42479247  0.45797547  0.69182164    -0.39400
O4439       O  0.49256157  0.46008391  0.55327521    -0.40100
O4440       O  0.52081819  0.49199530  0.58092360    -0.40200
C4441       C  0.49661197  0.32831593  0.70179685    -0.12500
C4442       C  0.51714129  0.33929394  0.68067975     0.04500
C4443       C  0.52824167  0.32439821  0.67093747    -0.07800
C4444       C  0.51631746  0.29801214  0.67908970    -0.08500
C4445       C  0.49368127  0.28638599  0.69716553    -0.03100
C4446       C  0.48476339  0.30230570  0.70987764     0.03800
N4447       N  0.46318096  0.29237676  0.73049911     0.66300
H4448       H  0.48840129  0.33961622  0.71060110     0.15200
H4449       H  0.52413517  0.28641517  0.67020743     0.14900
N4450       N  0.55120936  0.33550055  0.65258241     0.74000
O4451       O  0.44095735  0.28495108  0.71985326    -0.39500
O4452       O  0.46721976  0.29793243  0.75861876    -0.39400
O4453       O  0.57283825  0.34628323  0.66577974    -0.40100
O4454       O  0.55002060  0.32911674  0.62478465    -0.40200
C4455       C  0.21770221  0.51769195  0.84105417    -0.12500
C4456       C  0.21070391  0.50059156  0.81636334     0.04500
C4457       C  0.18828271  0.49444580  0.79959191    -0.07800
C4458       C  0.17256805  0.50442368  0.80854801    -0.08500
C4459       C  0.17817660  0.51991895  0.83484320    -0.03100
C4460       C  0.20166500  0.52738688  0.85051405     0.03800
N4461       N  0.20872376  0.54321019  0.87730353     0.66300
H4462       H  0.23478926  0.52225846  0.85419122     0.15200
H4463       H  0.15490875  0.49843756  0.79593845     0.14900
N4464       N  0.18006064  0.47638353  0.77483504     0.74000
O4465       O  0.20362917  0.53268706  0.90348339    -0.39500
O4466       O  0.22504591  0.56695413  0.87493662    -0.39400
O4467       O  0.16376469  0.45296793  0.77998795    -0.40100
O4468       O  0.18432012  0.48461360  0.74753450    -0.40200
C4469       C  0.24798453  0.44860332  0.91568040    -0.12500
C4470       C  0.22778291  0.42939485  0.89840102     0.04500
C4471       C  0.20435912  0.41203176  0.91320715    -0.07800
C4472       C  0.20141436  0.41463891  0.94475324    -0.08500
C4473       C  0.22123326  0.43482652  0.96147782    -0.03100
C4474       C  0.24480814  0.45168714  0.94677080     0.03800
N4475       N  0.26572579  0.47222578  0.96296478     0.66300
H4476       H  0.26609546  0.46213671  0.90472562     0.15200
H4477       H  0.18317498  0.40167841  0.95584295     0.14900
N4478       N  0.18344691  0.39182203  0.89666566     0.74000
O4479       O  0.28438687  0.46946066  0.97130690    -0.39500
O4480       O  0.26880575  0.49467839  0.96137522    -0.39400
O4481       O  0.18013862  0.36926522  0.89764654    -0.40100
O4482       O  0.16545268  0.39518816  0.88707184    -0.40200
C4483       C  0.18857417  0.42865998  0.70382908    -0.12500
C4484       C  0.21309274  0.45000054  0.71005823     0.04500
C4485       C  0.22858744  0.46549783  0.68541721    -0.07800
C4486       C  0.22007336  0.45860508  0.65548926    -0.08500
C4487       C  0.19611932  0.43690845  0.64930157    -0.03100
C4488       C  0.17995414  0.42209410  0.67357678     0.03800
N4489       N  0.15581646  0.39931249  0.66784776     0.66300
H4490       H  0.17650614  0.41639852  0.72230895     0.15200
H4491       H  0.23222262  0.47048941  0.63682825     0.14900
N4492       N  0.25295626  0.48838003  0.69018155     0.74000
O4493       O  0.15512655  0.37796858  0.66501723    -0.39500
O4494       O  0.13506744  0.39958497  0.67216529    -0.39400
O4495       O  0.27350974  0.48878251  0.68232796    -0.40100
O4496       O  0.25355889  0.50936742  0.69589030    -0.40200
C4497       C  0.33739299  0.47172665  0.74591270    -0.12500
C4498       C  0.31149112  0.45505959  0.73860074     0.04500
C4499       C  0.30483102  0.44545015  0.70859379    -0.07800
C4500       C  0.32377707  0.45528611  0.68534187    -0.08500
C4501       C  0.34932909  0.47435796  0.69209271    -0.03100
C4502       C  0.35638482  0.48114515  0.72305222     0.03800
N4503       N  0.38250662  0.49883432  0.73141219     0.66300
H4504       H  0.34263338  0.47894007  0.76914840     0.15200
H4505       H  0.31807625  0.44962499  0.66175328     0.14900
N4506       N  0.27858452  0.42746246  0.70112215     0.74000
O4507       O  0.38894539  0.52184722  0.73787582    -0.39500
O4508       O  0.39693908  0.49010585  0.73948020    -0.39400
O4509       O  0.26356848  0.43560087  0.69351197    -0.40100
O4510       O  0.26935486  0.40387981  0.70761315    -0.40200
C4511       C  0.34503118  0.49623981  0.84089995    -0.12500
C4512       C  0.32984599  0.50789136  0.83671441     0.04500
C4513       C  0.34170332  0.53495002  0.84039168    -0.07800
C4514       C  0.36793129  0.54933443  0.84901455    -0.08500
C4515       C  0.38285259  0.53728611  0.85308969    -0.03100
C4516       C  0.37097840  0.51035652  0.84818187     0.03800
N4517       N  0.38499309  0.49674180  0.84934396     0.66300
H4518       H  0.33710257  0.47571788  0.83745200     0.15200
H4519       H  0.37665899  0.56997205  0.85219065     0.14900
N4520       N  0.32775974  0.54820395  0.83507126     0.74000
O4521       O  0.38314038  0.48356699  0.87285850    -0.39500
O4522       O  0.39404585  0.49311503  0.82481451    -0.39400
O4523       O  0.31935370  0.55506026  0.85768310    -0.40100
O4524       O  0.32924764  0.55820798  0.80907531    -0.40200
C4525       C  0.00099197  0.16344447  0.77248819    -0.12500
C4526       C  0.99329037  0.15524174  0.74224721     0.04500
C4527       C  0.01137188  0.15426753  0.72184843    -0.07800
C4528       C  0.03686509  0.16315040  0.73137088    -0.08500
C4529       C  0.04470950  0.17249578  0.76114333    -0.03100
C4530       C  0.02636749  0.17201548  0.78198899     0.03800
N4531       N  0.03377964  0.18263325  0.81198805     0.66300
H4532       H  0.98760967  0.16444405  0.78850267     0.15200
H4533       H  0.05086822  0.16375286  0.71502992     0.14900
N4534       N  0.00486499  0.14618642  0.69071789     0.74000
O4535       O  0.04154364  0.20632447  0.81583192    -0.39500
O4536       O  0.02601935  0.16760919  0.83486048    -0.39400
O4537       O  0.01166480  0.16297009  0.66976619    -0.40100
O4538       O  0.99776159  0.12312107  0.68366196    -0.40200
C4539       C  0.21906250  0.34887846  0.79264632    -0.12500
C4540       C  0.20477574  0.36175698  0.79201648     0.04500
C4541       C  0.17777833  0.34720502  0.78804681    -0.07800
C4542       C  0.16570109  0.32046113  0.78507295    -0.08500
C4543       C  0.17990582  0.30755173  0.78552002    -0.03100
C4544       C  0.20691837  0.32201521  0.78914313     0.03800
N4545       N  0.22220509  0.30977381  0.79018660     0.66300
H4546       H  0.23978317  0.35969909  0.79576580     0.15200
H4547       H  0.14495518  0.30975274  0.78208287     0.14900
N4548       N  0.16211371  0.35906861  0.78784574     0.74000
O4549       O  0.23265654  0.30784100  0.76585925    -0.39500
O4550       O  0.22973261  0.30618184  0.81578277    -0.39400
O4551       O  0.15415446  0.36273442  0.76259644    -0.40100
O4552       O  0.15198038  0.36077296  0.81257224    -0.40200
C4553       C  0.16759451  0.16534930  0.72000579    -0.12500
C4554       C  0.14711089  0.15605406  0.74112582     0.04500
C4555       C  0.13639493  0.13040814  0.75195320    -0.07800
C4556       C  0.14749665  0.11538367  0.74306222    -0.08500
C4557       C  0.16962913  0.12580758  0.72418064    -0.03100
C4558       C  0.17919228  0.15096136  0.71191520     0.03800
N4559       N  0.20164691  0.16307932  0.69257456     0.66300
H4560       H  0.17615756  0.18492821  0.71142816     0.15200
H4561       H  0.13983901  0.09618691  0.75258703     0.14900
N4562       N  0.11601221  0.12018667  0.77416565     0.74000
O4563       O  0.19928487  0.16841265  0.66518097    -0.39500
O4564       O  0.22362262  0.17511476  0.70489701    -0.39400
O4565       O  0.09317428  0.10502834  0.76562060    -0.40100
O4566       O  0.12144909  0.12167996  0.80232430    -0.40200
C4567       C  0.16605710  0.20392471  0.87794117    -0.12500
C4568       C  0.18192446  0.21360550  0.85194339     0.04500
C4569       C  0.20730579  0.21787391  0.85306713    -0.07800
C4570       C  0.21510543  0.20907094  0.87875820    -0.08500
C4571       C  0.19776063  0.19650468  0.90323734    -0.03100
C4572       C  0.17393713  0.19596002  0.90364026     0.03800
N4573       N  0.15679319  0.18586597  0.92940090     0.66300
H4574       H  0.14672125  0.20122359  0.87769601     0.15200
H4575       H  0.23370318  0.21005589  0.87838352     0.14900
N4576       N  0.22427127  0.22879602  0.82730473     0.74000
O4577       O  0.15930611  0.20069914  0.95136184    -0.39500
O4578       O  0.13612063  0.16451559  0.92699713    -0.39400
O4579       O  0.23691559  0.25301702  0.82405266    -0.40100
O4580       O  0.22286788  0.21451689  0.80520108    -0.40200
C4581       C  0.13292029  0.26060226  0.66730370    -0.12500
C4582       C  0.13716111  0.24125072  0.67977536     0.04500
C4583       C  0.13596148  0.22190328  0.66015476    -0.07800
C4584       C  0.12835348  0.22077242  0.62972015    -0.08500
C4585       C  0.12243877  0.23895991  0.61786788    -0.03100
C4586       C  0.12612831  0.25987609  0.63626989     0.03800
N4587       N  0.12196013  0.27973454  0.62414721     0.66300
H4588       H  0.13425426  0.27591893  0.68186510     0.15200
H4589       H  0.12599429  0.20483582  0.61552522     0.14900
N4590       N  0.14039663  0.20198015  0.67126343     0.74000
O4591       O  0.09927761  0.27527028  0.61960793    -0.39500
O4592       O  0.14072039  0.29979598  0.61275374    -0.39400
O4593       O  0.12147995  0.18082771  0.68012533    -0.40100
O4594       O  0.16169282  0.20323774  0.66544889    -0.40200
C4595       C  0.07719405  0.21620214  0.88022117    -0.12500
C4596       C  0.10222537  0.22857364  0.86815702     0.04500
C4597       C  0.12328832  0.24414748  0.88727755    -0.07800
C4598       C  0.11908908  0.24584696  0.91862424    -0.08500
C4599       C  0.09400177  0.23291621  0.93090738    -0.03100
C4600       C  0.07289662  0.21855909  0.91129487     0.03800
N4601       N  0.04715300  0.20405138  0.92291435     0.66300
H4602       H  0.06148327  0.20392687  0.86637151     0.15200
H4603       H  0.13534645  0.25732294  0.93331726     0.14900
N4604       N  0.14890120  0.25877801  0.87508258     0.74000
O4605       O  0.03277528  0.21390283  0.92213297    -0.39500
O4606       O  0.03706050  0.17988675  0.92558719    -0.39400
O4607       O  0.15545148  0.27985470  0.86154399    -0.40100
O4608       O  0.16621838  0.25424433  0.88430468    -0.40200
loop_ 
_geom_bond_atom_site_label_1 
_geom_bond_atom_site_label_2 
_geom_bond_distance 
_geom_bond_site_symmetry_2 
_ccdc_geom_bond_type 
O1           C16   1.256       .  A
O1           Al9   1.879       .  S
C2           O12   1.265       .  A
C2            O3   1.268       .  A
C2         C2278   1.480       .  S
O3           Al5   1.931       .  S
O4            C6   1.254       .  A
O4           Al5   1.887       .  S
Al5          O13   1.871       .  S
Al5          O15   1.925       .  S
Al5          O14   1.782       .  S
C6           O19   1.261       .  A
C6         C2225   1.476       .  S
O7           C17   1.266       .  A
O7           Al9   1.928       .  S
O8           C21   1.268       .  A
O8          Al18   1.924       .  S
Al9          O22   1.900       .  S
Al9          O19   1.928       .  S
Al9          O14   1.792       .  S
O10          C17   1.263       .  A
O10         Al18   1.896       .  S
O11          C20   1.257       .  A
O11         Al18   1.929       .  S
O12         Al18   1.893       .  S
O13          C20   1.252       .  A
O14         Al18   1.786       .  S
O15          C16   1.265       .  A
C16        C2292   1.465       .  S
C17        C2250   1.485       .  S
C20        C2239   1.480       .  S
C21          O22   1.263       .  A
C21        C2264   1.474       .  S
O23          C38   1.261       .  A
O23         Al31   1.898       .  S
C24          O34   1.267       .  A
C24          O25   1.263       .  A
C24        C2166   1.466       .  S
O25         Al27   1.889       .  S
O26          C28   1.263       .  A
O26         Al27   1.914       .  S
Al27         O35   1.907       .  S
Al27         O37   1.900       .  S
Al27         O36   1.783       .  S
C28          O41   1.263       .  A
C28        C2152   1.472       .  S
O29          C39   1.258       .  A
O29         Al31   1.911       .  S
O30          C43   1.263       .  A
O30         Al40   1.918       .  S
Al31         O44   1.891       .  S
Al31         O41   1.911       .  S
Al31         O36   1.780       .  S
O32          C39   1.261       .  A
O32         Al40   1.894       .  S
O33          C42   1.258       .  A
O33         Al40   1.910       .  S
O34         Al40   1.916       .  S
O35          C42   1.259       .  A
O36         Al40   1.775       .  S
O37          C38   1.265       .  A
C38        C2180   1.471       .  S
C39        C2208   1.488       .  S
C42        C2236   1.475       .  S
C43          O44   1.260       .  A
C43        C2194   1.464       .  S
O45          C60   1.261       .  A
O45         Al53   1.879       .  S
C46          O56   1.258       .  A
C46          O47   1.264       .  A
C46        C2082   1.465       .  S
O47         Al49   1.926       .  S
O48          C50   1.256       .  A
O48         Al49   1.890       .  S
Al49         O57   1.879       .  S
Al49         O59   1.919       .  S
Al49         O58   1.786       .  S
C50          O63   1.264       .  A
C50        C2071   1.481       .  S
O51          C61   1.268       .  A
O51         Al53   1.924       .  S
O52          C65   1.261       .  A
O52         Al62   1.911       .  S
Al53         O66   1.925       .  S
Al53         O63   1.947       .  S
Al53         O58   1.788       .  S
O54          C61   1.267       .  A
O54         Al62   1.905       .  S
O55          C64   1.259       .  A
O55         Al62   1.915       .  S
O56         Al62   1.866       .  S
O57          C64   1.254       .  A
O58         Al62   1.780       .  S
O59          C60   1.265       .  A
C60        C2099   1.469       .  S
C61        C2138   1.485       .  S
C64        C2124   1.485       .  S
C65          O66   1.265       .  A
C65        C2110   1.473       .  S
O67          C82   1.271       .  A
O67         Al75   1.921       .  S
C68          O78   1.276       .  A
C68          O69   1.269       .  A
C68        C2043   1.476       .  S
O69         Al71   1.892       .  S
O70          C72   1.255       .  A
O70         Al71   1.894       .  S
Al71         O79   1.864       .  S
Al71         O81   1.900       .  S
Al71         O80   1.787       .  S
C72          O85   1.261       .  A
C72        C2012   1.482       .  S
O73          C83   1.262       .  A
O73         Al75   1.919       .  S
O74          C87   1.266       .  A
O74         Al84   1.933       .  S
Al75         O88   1.873       .  S
Al75         O85   1.926       .  S
Al75         O80   1.786       .  S
O76          C83   1.258       .  A
O76         Al84   1.892       .  S
O77          C86   1.256       .  A
O77         Al84   1.928       .  S
O78         Al84   1.946       .  S
O79          C86   1.249       .  A
O80         Al84   1.789       .  S
O81          C82   1.266       .  A
C82        C2054   1.483       .  S
C83        C2026   1.497       .  S
C86        C2127   1.483       .  S
C87          O88   1.256       .  A
C87        C2197   1.481       .  S
O89         C104   1.260       .  A
O89         Al97   1.881       .  S
C90         O100   1.259       .  A
C90          O91   1.267       .  A
C90        C1984   1.465       .  S
O91       Al2397   1.928   1_554  S
O92          C94   1.254       .  A
O92         Al93   1.889       .  S
Al93        O101   1.883       .  S
Al93        O103   1.912       .  S
Al93       O2395   1.925       .  S
Al93        O102   1.790       .  S
C94         O107   1.261       .  A
C94        C1945   1.483       .  S
O95         C105   1.265       .  A
O95         Al97   1.922       .  S
O96         C109   1.267       .  A
O96        Al106   1.927       .  S
Al97        O110   1.918       .  S
Al97        O107   1.934       .  S
Al97        O102   1.787       .  S
O98         C105   1.261       .  A
O98        Al106   1.907       .  S
O99         C108   1.257       .  A
O99        Al106   1.916       .  S
O100      Al2410   1.867   1_554  S
O101        C108   1.252       .  A
O102       Al106   1.791       .  S
O103        C104   1.264       .  A
C104       C1998   1.479       .  S
C105       C4277   1.487       .  S
Al106      O2404   1.879       .  S
C108       C1956   1.488       .  S
C109        O110   1.267       .  A
C109       C2267   1.480       .  S
O111        C126   1.270       .  A
O111      Al2423   1.914   1_554  S
C112        O122   1.266       .  A
C112        O113   1.273       .  A
C112       C1914   1.477       .  S
O113       Al115   1.933       .  S
O114        C116   1.254       .  A
O114       Al115   1.872       .  S
Al115       O123   1.871       .  S
Al115       O125   1.911       .  S
Al115       O124   1.775       .  S
C116        O129   1.260       .  A
C116       C1886   1.479       .  S
O117        C127   1.259       .  A
O117       Al119   1.913       .  S
O118        C131   1.269       .  A
O118       Al128   1.909       .  S
Al119       O132   1.915       .  S
Al119       O129   1.924       .  S
Al119      O2415   1.870       .  S
Al119       O124   1.784       .  S
O120        C127   1.259       .  A
O120       Al128   1.892       .  S
O121        C130   1.255       .  A
O121       Al128   1.932       .  S
O122       Al128   1.888       .  S
O123        C130   1.248       .  A
O124       Al128   1.794       .  S
O125       C2430   1.261       .  A
C126       O2429   1.268   1_554  A
C126       C1928   1.484       .  S
C127       C1900   1.477       .  S
C130       C1959   1.475       .  S
C131        O132   1.272       .  A
C131       C4417   1.469       .  S
O133        C148   1.261       .  A
O133       Al141   1.881       .  S
C134        O144   1.266       .  A
C134        O135   1.270       .  A
C134       C1847   1.471       .  S
O135       Al137   1.928       .  S
O136        C138   1.259       .  A
O136       Al137   1.901       .  S
Al137       O145   1.930       .  S
Al137       O147   1.911       .  S
Al137       O146   1.789       .  S
C138        O151   1.258       .  A
C138       C1889   1.488       .  S
O139        C149   1.263       .  A
O139       Al141   1.932       .  S
O140        C153   1.262       .  A
O140       Al150   1.899       .  S
Al141       O154   1.924       .  S
Al141       O151   1.898       .  S
Al141       O146   1.785       .  S
O142        C149   1.260       .  A
O142       Al150   1.909       .  S
O143        C152   1.248       .  A
O143       Al150   1.871       .  S
O144       Al150   1.875       .  S
O145        C152   1.260       .  A
O146       Al150   1.777       .  S
O147        C148   1.263       .  A
C148       C1875   1.465       .  S
C149       C1816   1.487       .  S
C152       C1830   1.490       .  S
C153        O154   1.267       .  A
C153       C1858   1.474       .  S
O155        C170   1.258       .  A
O155       Al163   1.879       .  S
C156        O166   1.265       .  A
C156        O157   1.270       .  A
C156       C1760   1.465       .  S
O157       Al159   1.933       .  S
O158        C160   1.257       .  A
O158       Al159   1.893       .  S
Al159       O167   1.922       .  S
Al159       O169   1.920       .  S
Al159       O168   1.789       .  S
C160        O173   1.262       .  A
C160       C1802   1.487       .  S
O161        C171   1.264       .  A
O161       Al163   1.942       .  S
O162        C175   1.267       .  A
O162       Al172   1.907       .  S
Al163       O176   1.918       .  S
Al163       O173   1.913       .  S
Al163       O168   1.780       .  S
O164        C171   1.260       .  A
O164       Al172   1.908       .  S
O165        C174   1.257       .  A
O165       Al172   1.896       .  S
O166       Al172   1.874       .  S
O167        C174   1.258       .  A
O168       Al172   1.774       .  S
O169        C170   1.265       .  A
C170       C1791   1.474       .  S
C171       C1746   1.493       .  S
C174       C1833   1.493       .  S
C175        O176   1.270       .  A
C175       C1777   1.481       .  S
O177        C192   1.262       .  A
O177       Al185   1.872       .  S
C178        O188   1.263       .  A
C178        O179   1.266       .  A
C178       C2001   1.480       .  S
O179       Al181   1.919       .  S
O180        C182   1.256       .  A
O180       Al181   1.902       .  S
Al181       O189   1.911       .  S
Al181       O191   1.921       .  S
Al181       O190   1.800       .  S
C182        O195   1.255       .  A
C182       C1732   1.484       .  S
O183        C193   1.265       .  A
O183       Al185   1.925       .  S
O184        C197   1.262       .  A
O184       Al194   1.900       .  S
Al185       O198   1.911       .  S
Al185       O195   1.888       .  S
Al185       O190   1.789       .  S
O186        C193   1.260       .  A
O186       Al194   1.903       .  S
O187        C196   1.253       .  A
O187       Al194   1.887       .  S
O188       Al194   1.871       .  S
O189        C196   1.256       .  A
O190       Al194   1.780       .  S
O191        C192   1.266       .  A
C192       C1704   1.466       .  S
C193       C2253   1.486       .  S
C196       C1721   1.479       .  S
C197        O198   1.260       .  A
C197       C1987   1.477       .  S
O199        C214   1.260       .  A
O199       Al207   1.878       .  S
C200        O210   1.262       .  A
C200        O201   1.266       .  A
C200       C1931   1.460       .  S
O201       Al203   1.925       .  S
O202        C204   1.261       .  A
O202       Al203   1.892       .  S
Al203       O211   1.924       .  S
Al203       O213   1.910       .  S
Al203       O212   1.784       .  S
C204        O217   1.261       .  A
C204       C1690   1.492       .  S
O205        C215   1.263       .  A
O205       Al207   1.919       .  S
O206        C219   1.264       .  A
O206       Al216   1.906       .  S
Al207       O220   1.922       .  S
Al207       O217   1.920       .  S
Al207       O212   1.776       .  S
O208        C215   1.262       .  A
O208       Al216   1.916       .  S
O209        C218   1.260       .  A
O209       Al216   1.900       .  S
O210       Al216   1.887       .  S
O211        C218   1.260       .  A
O212       Al216   1.776       .  S
O213        C214   1.260       .  A
C214       C1872   1.460       .  S
C215       C2141   1.485       .  S
C218       C1718   1.481       .  S
C219        O220   1.268       .  A
C219       C1917   1.473       .  S
O221        C236   1.270       .  A
O221       Al229   1.915       .  S
C222        O232   1.267       .  A
C222        O223   1.263       .  A
C222       C1662   1.471       .  S
O223      Al2529   1.877       .  S
O224       C2530   1.261       .  A
O224      Al2529   1.913       .  S
Al225       O233   1.944       .  S
Al225       O235   1.892       .  S
Al225      O2527   1.879   1_554  S
Al225      O2528   1.906       .  S
Al225       O234   1.802       .  S
C226        O239   1.259       .  A
C226       O2528   1.258       .  A
C226       C4246   1.488   1_564  S
O227        C237   1.263       .  A
O227       Al229   1.929       .  S
O228        C241   1.254       .  A
O228       Al238   1.883       .  S
Al229       O242   1.888       .  S
Al229       O239   1.914       .  S
Al229       O234   1.797       .  S
O230        C237   1.254       .  A
O230       Al238   1.866       .  S
O231        C240   1.249       .  A
O231       Al238   1.867       .  S
O232      Al2542   1.920       .  S
O233        C240   1.257       .  A
O234       Al238   1.783       .  S
O235        C236   1.265       .  A
C236       C1707   1.456       .  S
C237       C1637   1.480       .  S
Al238      O2536   1.921   1_554  S
C240       C1648   1.495       .  S
C241        O242   1.256       .  A
C241       C1679   1.460       .  S
O243        C258   1.263       .  A
O243       Al251   1.886       .  S
C244        O254   1.264       .  A
C244        O245   1.267       .  A
C244       C1609   1.465       .  S
O245       Al247   1.920       .  S
O246        C248   1.260       .  A
O246       Al247   1.900       .  S
Al247       O255   1.924       .  S
Al247       O257   1.910       .  S
Al247       O256   1.786       .  S
C248        O261   1.257       .  A
C248       C1595   1.490       .  S
O249        C259   1.264       .  A
O249       Al251   1.931       .  S
O250       C2567   1.264   1_554  A
O250       Al260   1.919       .  S
Al251       O261   1.907       .  S
Al251      O2568   1.917       .  S
Al251       O256   1.784       .  S
O252        C259   1.264       .  A
O252       Al260   1.913       .  S
O253        C262   1.255       .  A
O253       Al260   1.888       .  S
O254       Al260   1.890       .  S
O255        C262   1.259       .  A
O256       Al260   1.780       .  S
O257        C258   1.264       .  A
C258       C4092   1.466   1_554  S
C259       C1578   1.482       .  S
C262       C1651   1.491       .  S
C263        O264   1.268       .  A
C263       O2554   1.266       .  A
C263       C1620   1.477       .  S
O264      Al2555   1.918       .  S
O265        C280   1.268       .  A
O265       Al273   1.919       .  S
C266        O276   1.269       .  A
C266        O267   1.265       .  A
C266       C1623   1.469       .  S
O267       Al269   1.893       .  S
O268        C270   1.261       .  A
O268       Al269   1.920       .  S
Al269       O277   1.902       .  S
Al269       O279   1.908       .  S
Al269       O278   1.780       .  S
C270        O283   1.262       .  A
C270       C1805   1.476       .  S
O271        C281   1.261       .  A
O271       Al273   1.917       .  S
O272        C285   1.264       .  A
O272       Al282   1.923       .  S
Al273       O286   1.890       .  S
Al273       O283   1.922       .  S
Al273       O278   1.778       .  S
O274        C281   1.258       .  A
O274       Al282   1.887       .  S
O275        C284   1.261       .  A
O275       Al282   1.927       .  S
O276       Al282   1.931       .  S
O277        C284   1.259       .  A
O278       Al282   1.780       .  S
O279        C280   1.265       .  A
C280       C1606   1.476       .  S
C281       C1550   1.485       .  S
C284       C1536   1.488       .  S
C285        O286   1.260       .  A
C285       C1564   1.468       .  S
O287        C302   1.260       .  A
O287       Al295   1.868       .  S
C288        O298   1.258       .  A
C288        O289   1.262       .  A
C288       C1676   1.469       .  S
O289       Al291   1.918       .  S
O290        C292   1.257       .  A
O290       Al291   1.888       .  S
Al291       O299   1.893       .  S
Al291       O301   1.920       .  S
Al291       O300   1.786       .  S
C292        O305   1.261       .  A
C292       C1735   1.466       .  S
O293        C303   1.264       .  A
O293       Al295   1.915       .  S
O294        C307   1.261       .  A
O294       Al304   1.906       .  S
Al295       O308   1.912       .  S
Al295       O305   1.923       .  S
Al295       O300   1.785       .  S
O296        C303   1.267       .  A
O296       Al304   1.911       .  S
O297        C306   1.264       .  A
O297       Al304   1.932       .  S
O298       Al304   1.871       .  S
O299        C306   1.258       .  A
O300       Al304   1.776       .  S
O301        C302   1.262       .  A
C302       C1665   1.467       .  S
C303       C1522   1.483       .  S
C306       C1539   1.491       .  S
C307        O308   1.263       .  A
C307       C1508   1.464       .  S
O309        C324   1.258       .  A
O309       Al317   1.884       .  S
C310        O320   1.265       .  A
C310        O311   1.267       .  A
C310       C1452   1.487       .  S
O311       Al313   1.912       .  S
O312        C314   1.258       .  A
O312       Al313   1.879       .  S
Al313       O321   1.880       .  S
Al313       O323   1.940       .  S
Al313       O322   1.771       .  S
C314        O327   1.262       .  A
C314       C1424   1.490       .  S
O315        C325   1.261       .  A
O315       Al317   1.893       .  S
O316        C329   1.267       .  A
O316       Al326   1.930       .  S
Al317       O330   1.899       .  S
Al317       O327   1.938       .  S
Al317       O322   1.783       .  S
O318        C325   1.268       .  A
O318       Al326   1.925       .  S
O319        C328   1.266       .  A
O319       Al326   1.940       .  S
O320       Al326   1.916       .  S
O321        C328   1.256       .  A
O322       Al326   1.791       .  S
O323        C324   1.265       .  A
C324       C1469   1.475       .  S
C325       C1494   1.472       .  S
C328       C1480   1.485       .  S
C329        O330   1.263       .  A
C329       C1438   1.476       .  S
O331        C346   1.258       .  A
O331       Al339   1.883       .  S
C332        O342   1.264       .  A
C332        O333   1.263       .  A
C332       C1396   1.479       .  S
O333       Al335   1.918       .  S
O334        C336   1.257       .  A
O334       Al335   1.897       .  S
Al335       O343   1.886       .  S
Al335       O345   1.919       .  S
Al335       O344   1.789       .  S
C336        O349   1.258       .  A
C336       C1382   1.471       .  S
O337        C347   1.265       .  A
O337       Al339   1.921       .  S
O338        C351   1.265       .  A
O338       Al348   1.915       .  S
Al339       O352   1.903       .  S
Al339       O349   1.912       .  S
Al339       O344   1.794       .  S
O340        C347   1.260       .  A
O340       Al348   1.899       .  S
O341        C350   1.258       .  A
O341       Al348   1.917       .  S
O342       Al348   1.897       .  S
O343        C350   1.257       .  A
O344       Al348   1.790       .  S
O345        C346   1.262       .  A
C346       C1410   1.466       .  S
C347       C1581   1.482       .  S
C350       C1483   1.487       .  S
C351        O352   1.261       .  A
C351       C1567   1.472       .  S
O353        C368   1.262       .  A
O353      Al2665   1.884   1_554  S
C354        O364   1.261       .  A
C354        O355   1.264       .  A
C354       C1354   1.478       .  S
O355       Al357   1.925       .  S
O356        C358   1.254       .  A
O356       Al357   1.887       .  S
Al357       O365   1.882       .  S
Al357       O367   1.926       .  S
Al357       O366   1.789       .  S
C358        O371   1.260       .  A
C358       C1312   1.472       .  S
O359        C369   1.270       .  A
O359       Al361   1.925       .  S
O360        C373   1.264       .  A
O360       Al370   1.927       .  S
Al361       O374   1.904       .  S
Al361       O371   1.931       .  S
Al361      O2657   1.882       .  S
Al361       O366   1.786       .  S
O362        C369   1.267       .  A
O362       Al370   1.921       .  S
O363        C372   1.263       .  A
O363       Al370   1.927       .  S
O364       Al370   1.881       .  S
O365        C372   1.254       .  A
O366       Al370   1.783       .  S
O367       C2672   1.265       .  A
C368       O2671   1.265   1_554  A
C368       C1368   1.476       .  S
C369       C1340   1.492       .  S
C372       C1326   1.490       .  S
C373        O374   1.261       .  A
C373       C3745   1.479       .  S
O375        C390   1.270       .  A
O375       Al383   1.913       .  S
C376        O386   1.267       .  A
C376        O377   1.263       .  A
C376       C1284   1.455       .  S
O377      Al2683   1.878   1_554  S
O378        C380   1.259       .  A
O378       Al379   1.915       .  S
Al379       O387   1.904       .  S
Al379       O389   1.903       .  S
Al379      O2681   1.876       .  S
Al379       O388   1.784       .  S
C380        O393   1.262       .  A
C380       C1270   1.477       .  S
O381        C391   1.260       .  A
O381       Al383   1.921       .  S
O382        C395   1.261       .  A
O382       Al392   1.912       .  S
Al383       O396   1.880       .  S
Al383       O393   1.921       .  S
Al383       O388   1.777       .  S
O384        C391   1.260       .  A
O384       Al392   1.893       .  S
O385        C394   1.257       .  A
O385       Al392   1.914       .  S
O386      Al2696   1.924   1_554  S
O387        C394   1.257       .  A
O388       Al392   1.783       .  S
O389        C390   1.267       .  A
C390       C1301   1.479       .  S
C391       C3938   1.489       .  S
Al392      O2690   1.923       .  S
C394       C1329   1.486       .  S
C395        O396   1.261       .  A
C395       C1511   1.474       .  S
O397        C412   1.259       .  A
O397       Al405   1.873       .  S
C398        O408   1.264       .  A
C398        O399   1.267       .  A
C398       C1298   1.461       .  S
O399       Al401   1.923       .  S
O400        C402   1.259       .  A
O400       Al401   1.907       .  S
Al401       O409   1.913       .  S
Al401       O411   1.927       .  S
Al401       O410   1.791       .  S
C402        O415   1.258       .  A
C402       C1256   1.490       .  S
O403        C413   1.263       .  A
O403       Al405   1.922       .  S
O404        C417   1.268       .  A
O404       Al414   1.914       .  S
Al405       O418   1.908       .  S
Al405       O415   1.899       .  S
Al405       O410   1.780       .  S
O406        C413   1.262       .  A
O406       Al414   1.919       .  S
O407        C416   1.257       .  A
O407       Al414   1.916       .  S
O408       Al414   1.880       .  S
O409        C416   1.258       .  A
O410       Al414   1.781       .  S
O411        C412   1.266       .  A
C412       C1228   1.471       .  S
C413       C1525   1.486       .  S
C416       C1242   1.481       .  S
C417        O418   1.263       .  A
C417       C1287   1.482       .  S
O419        C434   1.261       .  A
O419       Al427   1.878       .  S
C420        O430   1.261       .  A
C420        O421   1.270       .  A
C420       C1371   1.485       .  S
O421       Al423   1.941       .  S
O422        C424   1.261       .  A
O422       Al423   1.911       .  S
Al423       O431   1.926       .  S
Al423       O433   1.930       .  S
Al423       O432   1.783       .  S
C424        O437   1.257       .  A
C424       C2068   1.498       .  S
O425        C435   1.263       .  A
O425       Al427   1.919       .  S
O426        C439   1.264       .  A
O426       Al436   1.910       .  S
Al427       O440   1.927       .  S
Al427       O437   1.912       .  S
Al427       O432   1.784       .  S
O428        C435   1.264       .  A
O428       Al436   1.909       .  S
O429        C438   1.254       .  A
O429       Al436   1.902       .  S
O430       Al436   1.860       .  S
O431        C438   1.260       .  A
O432       Al436   1.778       .  S
O433        C434   1.269       .  A
C434       C1217   1.467       .  S
C435       C1497   1.471       .  S
C438       C1245   1.483       .  S
C439        O440   1.264       .  A
C439       C1357   1.476       .  S
O441        C456   1.262       .  A
O441       Al449   1.878       .  S
C442        O452   1.262       .  A
C442        O443   1.266       .  A
C442       C2096   1.479       .  S
O443       Al445   1.920       .  S
O444        C446   1.258       .  A
O444       Al445   1.899       .  S
Al445       O453   1.925       .  S
Al445       O455   1.912       .  S
Al445       O454   1.798       .  S
C446        O459   1.253       .  A
C446       C1315   1.487       .  S
O447        C457   1.266       .  A
O447       Al449   1.933       .  S
O448        C461   1.262       .  A
O448       Al458   1.906       .  S
Al449       O462   1.897       .  S
Al449       O459   1.894       .  S
Al449       O454   1.794       .  S
O450        C457   1.258       .  A
O450       Al458   1.890       .  S
O451        C460   1.250       .  A
O451       Al458   1.873       .  S
O452       Al458   1.862       .  S
O453        C460   1.257       .  A
O454       Al458   1.779       .  S
O455        C456   1.266       .  A
C456       C1214   1.465       .  S
C457       C1903   1.486       .  S
C460       C1203   1.480       .  S
C461        O462   1.257       .  A
C461       C2085   1.473       .  S
O463        C478   1.259       .  A
O463       Al471   1.876       .  S
C464        O474   1.263       .  A
C464        O465   1.269       .  A
C464       C2057   1.461       .  S
O465       Al467   1.928       .  S
O466        C468   1.258       .  A
O466       Al467   1.894       .  S
Al467       O475   1.916       .  S
Al467       O477   1.911       .  S
Al467       O476   1.783       .  S
C468        O481   1.259       .  A
C468       C1186   1.492       .  S
O469        C479   1.266       .  A
O469       Al471   1.927       .  S
O470        C483   1.270       .  A
O470       Al480   1.914       .  S
Al471       O484   1.901       .  S
Al471       O481   1.917       .  S
Al471       O476   1.784       .  S
O472        C479   1.257       .  A
O472       Al480   1.896       .  S
O473        C482   1.255       .  A
O473       Al480   1.903       .  S
O474       Al480   1.881       .  S
O475        C482   1.256       .  A
O476       Al480   1.783       .  S
O477        C478   1.264       .  A
C478       C1172   1.464       .  S
C479       C2211   1.483       .  S
C482       C1200   1.487       .  S
C483        O484   1.264       .  A
C483       C2040   1.481       .  S
O485       C2804   1.261       .  A
O485      Al2797   1.877       .  S
C486        O496   1.261       .  A
C486        O487   1.267       .  A
C486       C1144   1.459       .  S
O487       Al489   1.925       .  S
O488        C490   1.262       .  A
O488       Al489   1.898       .  S
Al489       O497   1.935       .  S
Al489       O499   1.901       .  S
Al489       O498   1.782       .  S
C490        O503   1.260       .  A
C490       C2015   1.495       .  S
O491        C501   1.262       .  A
O491       Al493   1.919       .  S
O492       C2809   1.265   1_554  A
O492       Al502   1.903       .  S
Al493       O503   1.920       .  S
Al493      O2789   1.878       .  S
Al493      O2810   1.925       .  S
Al493       O498   1.787       .  S
O494        C501   1.264       .  A
O494       Al502   1.906       .  S
O495        C504   1.259       .  A
O495       Al502   1.913       .  S
O496       Al502   1.878       .  S
O497        C504   1.260       .  A
O498       Al502   1.775       .  S
O499        C500   1.261       .  A
C500       O2789   1.260       .  A
C500       C3479   1.459   1_554  S
C501       C1116   1.482       .  S
C504       C1130   1.491       .  S
C505        O506   1.265       .  A
C505       O2796   1.266       .  A
C505       C1161   1.474       .  S
O506      Al2797   1.924       .  S
O507        C522   1.264       .  A
O507       Al515   1.883       .  S
C508        O518   1.260       .  A
C508        O509   1.269       .  A
C508       C1088   1.481       .  S
O509      Al2815   1.930       .  S
O510       C2816   1.262       .  A
O510      Al2815   1.903       .  S
Al511       O519   1.932       .  S
Al511       O521   1.929       .  S
Al511      O2813   1.928   1_554  S
Al511      O2814   1.902   1_554  S
Al511       O520   1.789       .  S
C512        O525   1.255       .  A
C512       O2814   1.259   1_554  A
C512       C3577   1.494   1_554  S
O513        C523   1.268       .  A
O513       Al515   1.929       .  S
O514        C527   1.259       .  A
O514       Al524   1.889       .  S
Al515       O528   1.911       .  S
Al515       O525   1.909       .  S
Al515       O520   1.793       .  S
O516        C523   1.263       .  A
O516       Al524   1.897       .  S
O517        C526   1.254       .  A
O517       Al524   1.894       .  S
O518      Al2828   1.873       .  S
O519        C526   1.259       .  A
O520       Al524   1.781       .  S
O521        C522   1.268       .  A
C522       C1231   1.469       .  S
C523       C1077   1.486       .  S
Al524      O2822   1.866   1_554  S
C526       C1133   1.490       .  S
C527        O528   1.260       .  A
C527       C1102   1.461       .  S
O529        C544   1.257       .  A
O529       Al537   1.876       .  S
C530        O540   1.265       .  A
C530        O531   1.270       .  A
C530       C1032   1.467       .  S
O531       Al533   1.942       .  S
O532        C534   1.262       .  A
O532       Al533   1.899       .  S
Al533       O541   1.912       .  S
Al533       O543   1.920       .  S
Al533       O542   1.778       .  S
C534        O547   1.260       .  A
C534       C2222   1.490       .  S
O535        C545   1.262       .  A
O535       Al537   1.919       .  S
O536        C549   1.264       .  A
O536       Al546   1.902       .  S
Al537       O550   1.908       .  S
Al537       O547   1.915       .  S
Al537       O542   1.779       .  S
O538        C545   1.264       .  A
O538       Al546   1.926       .  S
O539        C548   1.258       .  A
O539       Al546   1.907       .  S
O540       Al546   1.879       .  S
O541        C548   1.257       .  A
O542       Al546   1.777       .  S
O543        C544   1.265       .  A
C544       C1060   1.472       .  S
C545       C1004   1.481       .  S
C548       C1021   1.482       .  S
C549        O550   1.267       .  A
C549       C1049   1.466       .  S
O551        C566   1.269       .  A
O551       Al559   1.901       .  S
C552        O562   1.275       .  A
C552        O553   1.272       .  A
C552        C976   1.489       .  S
O553       Al555   1.909       .  S
O554        C556   1.254       .  A
O554       Al555   1.901       .  S
Al555       O563   1.932       .  S
Al555       O565   1.920       .  S
Al555       O564   1.802       .  S
C556        O569   1.256       .  A
C556       C1427   1.477       .  S
O557        C567   1.254       .  A
O557       Al559   1.896       .  S
O558        C571   1.258       .  A
O558       Al568   1.903       .  S
Al559       O572   1.881       .  S
Al559       O569   1.918       .  S
Al559       O564   1.789       .  S
O560        C567   1.253       .  A
O560       Al568   1.875       .  S
O561        C570   1.245       .  A
O561       Al568   1.863       .  S
O562       Al568   1.925       .  S
O563        C570   1.253       .  A
O564       Al568   1.781       .  S
O565        C566   1.273       .  A
C566        C965   1.476       .  S
C567        C948   1.470       .  S
C570       C1018   1.485       .  S
C571        O572   1.258       .  A
C571        C990   1.468       .  S
O573        C588   1.262       .  A
O573       Al581   1.898       .  S
C574        O584   1.262       .  A
C574        O575   1.267       .  A
C574       C2295   1.467       .  S
O575      Al2881   1.926       .  S
O576       C2882   1.259       .  A
O576      Al2881   1.891       .  S
Al577       O585   1.913       .  S
Al577       O587   1.909       .  S
Al577      O2879   1.916   1_554  S
Al577      O2880   1.890   1_554  S
Al577       O586   1.778       .  S
C578        O591   1.258       .  A
C578       O2880   1.261   1_554  A
C578        C937   1.487   1_454  S
O579        C589   1.263       .  A
O579       Al581   1.923       .  S
O580        C593   1.263       .  A
O580       Al590   1.911       .  S
Al581       O594   1.900       .  S
Al581       O591   1.911       .  S
Al581       O586   1.784       .  S
O582        C589   1.263       .  A
O582       Al590   1.909       .  S
O583        C592   1.258       .  A
O583       Al590   1.904       .  S
O584      Al2894   1.877       .  S
O585        C592   1.260       .  A
O586       Al590   1.780       .  S
O587        C588   1.262       .  A
C588       C1063   1.465       .  S
C589       C1970   1.476       .  S
Al590      O2888   1.886   1_554  S
C592        C920   1.484       .  S
C593        O594   1.262       .  A
C593       C2281   1.471       .  S
O595        C610   1.263       .  A
O595       Al603   1.887       .  S
C596        O606   1.261       .  A
C596        O597   1.265       .  A
C596       C2183   1.457       .  S
O597       Al599   1.922       .  S
O598        C600   1.262       .  A
O598       Al599   1.918       .  S
Al599       O607   1.914       .  S
Al599       O609   1.918       .  S
Al599       O608   1.794       .  S
C600        O613   1.257       .  A
C600       C1385   1.486       .  S
O601        C611   1.264       .  A
O601       Al603   1.929       .  S
O602       C2919   1.261   1_554  A
O602       Al612   1.900       .  S
Al603       O613   1.892       .  S
Al603      O2920   1.915       .  S
Al603       O608   1.780       .  S
O604        C611   1.265       .  A
O604       Al612   1.918       .  S
O605        C614   1.257       .  A
O605       Al612   1.894       .  S
O606       Al612   1.864       .  S
O607        C614   1.258       .  A
O608       Al612   1.775       .  S
O609        C610   1.265       .  A
C610       C3210   1.473   1_554  S
C611       C2029   1.486       .  S
C614        C923   1.477       .  S
C615        O616   1.265       .  A
C615       O2906   1.262       .  A
C615       C2169   1.461       .  S
O616      Al2907   1.923       .  S
O617        C632   1.262       .  A
O617       Al625   1.905       .  S
C618        O628   1.260       .  A
C618        O619   1.265       .  A
C618       C1466   1.481       .  S
O619       Al621   1.923       .  S
O620        C622   1.262       .  A
O620       Al621   1.913       .  S
Al621       O629   1.906       .  S
Al621       O631   1.924       .  S
Al621       O630   1.797       .  S
C622        O635   1.261       .  A
C622        C892   1.492       .  S
O623        C633   1.264       .  A
O623       Al625   1.933       .  S
O624        C637   1.258       .  A
O624       Al634   1.893       .  S
Al625       O638   1.916       .  S
Al625       O635   1.905       .  S
Al625       O630   1.785       .  S
O626        C633   1.262       .  A
O626       Al634   1.906       .  S
O627        C636   1.259       .  A
O627       Al634   1.898       .  S
O628       Al634   1.884       .  S
O629        C636   1.258       .  A
O630       Al634   1.788       .  S
O631        C632   1.262       .  A
C632        C962   1.474       .  S
C633       C1343   1.487       .  S
C636        C878   1.473       .  S
C637        O638   1.261       .  A
C637       C1455   1.466       .  S
O639        C654   1.261       .  A
O639       Al647   1.890       .  S
C640        O650   1.264       .  A
C640        O641   1.266       .  A
C640       C1413   1.470       .  S
O641       Al643   1.920       .  S
O642        C644   1.258       .  A
O642       Al643   1.883       .  S
Al643       O651   1.922       .  S
Al643       O653   1.913       .  S
Al643       O652   1.785       .  S
C644        O657   1.259       .  A
C644       C2155   1.486       .  S
O645        C655   1.263       .  A
O645       Al647   1.926       .  S
O646        C659   1.267       .  A
O646       Al656   1.919       .  S
Al647       O660   1.922       .  S
Al647       O657   1.917       .  S
Al647       O652   1.788       .  S
O648        C655   1.261       .  A
O648       Al656   1.889       .  S
O649        C658   1.256       .  A
O649       Al656   1.882       .  S
O650       Al656   1.896       .  S
O651        C658   1.259       .  A
O652       Al656   1.776       .  S
O653        C654   1.263       .  A
C654        C909   1.469       .  S
C655       C1553   1.482       .  S
C658        C881   1.478       .  S
C659        O660   1.265       .  A
C659       C1399   1.481       .  S
O661        C676   1.260       .  A
O661       Al669   1.883       .  S
C662        O672   1.259       .  A
C662        O663   1.262       .  A
C662       C1105   1.471       .  S
O663       Al665   1.913       .  S
O664        C666   1.256       .  A
O664       Al665   1.888       .  S
Al665       O673   1.881       .  S
Al665       O675   1.931       .  S
Al665       O674   1.782       .  S
C666        O679   1.264       .  A
C666       C1259   1.473       .  S
O667        C677   1.265       .  A
O667       Al669   1.916       .  S
O668        C681   1.262       .  A
O668       Al678   1.909       .  S
Al669       O682   1.917       .  S
Al669       O679   1.939       .  S
Al669       O674   1.785       .  S
O670        C677   1.267       .  A
O670       Al678   1.911       .  S
O671        C680   1.262       .  A
O671       Al678   1.934       .  S
O672       Al678   1.874       .  S
O673        C680   1.259       .  A
O674       Al678   1.782       .  S
O675        C676   1.264       .  A
C676       C1091   1.470       .  S
C677       C1007   1.482       .  S
C680        C864   1.484       .  S
C681        O682   1.264       .  A
C681        C850   1.468       .  S
O683        C698   1.271       .  A
O683       Al691   1.920       .  S
C684        O694   1.275       .  A
C684        O685   1.264       .  A
C684       C1158   1.473       .  S
O685       Al687   1.883       .  S
O686        C688   1.261       .  A
O686       Al687   1.925       .  S
Al687       O695   1.905       .  S
Al687       O697   1.894       .  S
Al687       O696   1.791       .  S
C688        O701   1.260       .  A
C688       C1189   1.477       .  S
O689        C699   1.264       .  A
O689       Al691   1.927       .  S
O690        C703   1.269       .  A
O690       Al700   1.950       .  S
Al691       O704   1.890       .  S
Al691       O701   1.916       .  S
Al691       O696   1.777       .  S
O692        C699   1.257       .  A
O692       Al700   1.894       .  S
O693        C702   1.257       .  A
O693       Al700   1.913       .  S
O694       Al700   1.949       .  S
O695        C702   1.256       .  A
O696       Al700   1.779       .  S
O697        C698   1.263       .  A
C698       C1147   1.477       .  S
C699       C1749   1.499       .  S
C702        C867   1.480       .  S
C703        O704   1.259       .  A
C703        C836   1.491       .  S
O705        C720   1.269       .  A
O705       Al713   1.901       .  S
C706        O716   1.267       .  A
C706        O707   1.264       .  A
C706       C1861   1.460       .  S
O707       Al709   1.889       .  S
O708        C710   1.257       .  A
O708       Al709   1.903       .  S
Al709       O717   1.903       .  S
Al709       O719   1.902       .  S
Al709       O718   1.786       .  S
C710        O723   1.262       .  A
C710       C1693   1.477       .  S
O711        C721   1.260       .  A
O711       Al713   1.915       .  S
O712        C725   1.262       .  A
O712       Al722   1.918       .  S
Al713       O726   1.897       .  S
Al713       O723   1.922       .  S
Al713       O718   1.779       .  S
O714        C721   1.257       .  A
O714       Al722   1.874       .  S
O715        C724   1.259       .  A
O715       Al722   1.914       .  S
O716       Al722   1.920       .  S
O717        C724   1.256       .  A
O718       Al722   1.776       .  S
O719        C720   1.267       .  A
C720       C1844   1.475       .  S
C721        C951   1.482       .  S
C724        C822   1.484       .  S
C725        O726   1.260       .  A
C725        C808   1.471       .  S
O727        C742   1.259       .  A
O727       Al735   1.863       .  S
C728        O738   1.266       .  A
C728        O729   1.268       .  A
C728       C1774   1.478       .  S
O729       Al731   1.933       .  S
O730        C732   1.253       .  A
O730       Al731   1.883       .  S
Al731       O739   1.880       .  S
Al731       O741   1.919       .  S
Al731       O740   1.789       .  S
C732        O745   1.258       .  A
C732       C1592   1.470       .  S
O733        C743   1.262       .  A
O733       Al735   1.915       .  S
O734        C747   1.272       .  A
O734       Al744   1.937       .  S
Al735       O748   1.920       .  S
Al735       O745   1.915       .  S
Al735       O740   1.786       .  S
O736        C743   1.256       .  A
O736       Al744   1.894       .  S
O737        C746   1.256       .  A
O737       Al744   1.920       .  S
O738       Al744   1.894       .  S
O739        C746   1.253       .  A
O740       Al744   1.789       .  S
O741        C742   1.263       .  A
C742       C1763   1.480       .  S
C743       C1119   1.480       .  S
C746        C825   1.488       .  S
C747        O748   1.266       .  A
C747        C839   1.482       .  S
O749        C764   1.270       .  A
O749       Al757   1.918       .  S
C750        O760   1.271       .  A
C750        O751   1.267       .  A
C750       C1046   1.455       .  S
O751      Al3057   1.880   1_554  S
O752        C754   1.259       .  A
O752       Al753   1.912       .  S
Al753       O761   1.898       .  S
Al753       O763   1.917       .  S
Al753      O3055   1.886       .  S
Al753       O762   1.787       .  S
C754        O767   1.261       .  A
C754        C934   1.477       .  S
O755        C765   1.260       .  A
O755       Al757   1.912       .  S
O756        C769   1.265       .  A
O756       Al766   1.928       .  S
Al757       O770   1.874       .  S
Al757       O767   1.924       .  S
Al757       O762   1.776       .  S
O758        C765   1.256       .  A
O758       Al766   1.886       .  S
O759        C768   1.254       .  A
O759       Al766   1.906       .  S
O760      Al3070   1.922   1_554  S
O761        C768   1.255       .  A
O762       Al766   1.786       .  S
O763        C764   1.269       .  A
C764       C1035   1.489       .  S
C765       C3378   1.492       .  S
Al766      O3064   1.932       .  S
C768        C794   1.477       .  S
C769        O770   1.260       .  A
C769        C853   1.478       .  S
O771        C786   1.259       .  A
O771      Al3083   1.885   1_554  S
C772        O782   1.260       .  A
C772        O773   1.267       .  A
C772        C993   1.472       .  S
O773       Al775   1.926       .  S
O774        C776   1.256       .  A
O774       Al775   1.890       .  S
Al775       O783   1.872       .  S
Al775       O785   1.942       .  S
Al775       O784   1.777       .  S
C776        O789   1.263       .  A
C776        C895   1.475       .  S
O777        C787   1.266       .  A
O777       Al779   1.930       .  S
O778        C791   1.265       .  A
O778       Al788   1.915       .  S
Al779       O792   1.899       .  S
Al779       O789   1.934       .  S
Al779      O3075   1.888       .  S
Al779       O784   1.782       .  S
O780        C787   1.264       .  A
O780       Al788   1.899       .  S
O781        C790   1.262       .  A
O781       Al788   1.939       .  S
O782       Al788   1.887       .  S
O783        C790   1.256       .  A
O784       Al788   1.789       .  S
O785       C3090   1.266       .  A
C786       O3089   1.267   1_554  A
C786        C979   1.472       .  S
C787       C1819   1.482       .  S
C790        C797   1.484       .  S
C791        O792   1.265       .  A
C791       C3115   1.468       .  S
C793        C794   1.405       .  A
C793        C798   1.408       .  A
C793        H800   1.082       .  S
C794        C795   1.408       .  A
C795        C796   1.391       .  A
C795        N802   1.429       .  S
C796        C797   1.402       .  A
C796        H801   1.077       .  S
C797        C798   1.414       .  A
C798        N799   1.428       .  S
N799        O803   1.262       .  A
N799        O804   1.262       .  A
N802        O806   1.262       .  A
N802        O805   1.262       .  A
C807        C808   1.403       .  A
C807        C812   1.409       .  A
C807        H814   1.082       .  S
C808        C809   1.407       .  A
C809        C810   1.392       .  A
C809        N816   1.426       .  S
C810        C811   1.399       .  A
C810        H815   1.083       .  S
C811       C3095   1.472   1_554  S
C811        C812   1.411       .  A
C812       N3117   1.428   1_554  S
N813       C3116   1.428       .  S
N813        O817   1.262       .  A
N813        O818   1.261       .  A
N816        O820   1.261       .  A
N816        O819   1.261       .  A
C821        C822   1.405       .  A
C821        C826   1.407   1_545  A
C821        H828   1.082       .  S
C822        C823   1.413       .  A
C823        C824   1.395   1_545  A
C823        N830   1.430       .  S
C824        C825   1.403       .  A
C824        H829   1.079       .  S
C825        C826   1.416       .  A
C826        N827   1.428       .  S
N827        O831   1.262       .  A
N827        O832   1.262       .  A
N830        O834   1.262       .  A
N830        O833   1.262       .  A
C835        C836   1.406       .  A
C835        C840   1.410       .  A
C835        H842   1.083       .  S
C836        C837   1.414       .  A
C837        C838   1.404       .  A
C837        N844   1.430       .  S
C838        C839   1.402       .  A
C838        H843   1.083       .  S
C839        C840   1.411       .  A
C840        N841   1.428       .  S
N841        O845   1.261       .  A
N841        O846   1.261       .  A
N844        O848   1.262       .  A
N844        O847   1.262       .  A
C849        C850   1.402       .  A
C849        C854   1.406   1_565  A
C849        H856   1.083       .  S
C850        C851   1.407   1_565  A
C851        C852   1.394       .  A
C851        N858   1.428       .  S
C852        C853   1.402       .  A
C852        H857   1.084       .  S
C853        C854   1.413       .  A
C854        N855   1.428   1_545  S
N855        O859   1.262       .  A
N855        O860   1.262       .  A
N858        O862   1.260       .  A
N858        O861   1.261       .  A
C863        C864   1.400       .  A
C863        C868   1.393       .  A
C863        H870   1.083       .  S
C864        C865   1.417       .  A
C865        C866   1.408       .  A
C865        N872   1.428       .  S
C866        C867   1.404       .  A
C866        H871   1.082       .  S
C867        C868   1.409       .  A
C868        N869   1.426       .  S
N869        O873   1.262       .  A
N869        O874   1.261       .  A
N872        O876   1.262       .  A
N872        O875   1.262       .  A
C877        C878   1.405       .  A
C877        C882   1.409   1_655  A
C877        H884   1.082       .  S
C878        C879   1.407       .  A
C879        C880   1.390   1_655  A
C879        N886   1.428       .  S
C880        C881   1.402       .  A
C880        H885   1.083       .  S
C881        C882   1.411       .  A
C882        N883   1.427       .  S
N883        O887   1.262       .  A
N883        O888   1.262       .  A
N886        O890   1.261       .  A
N886        O889   1.262       .  A
C891        C892   1.409       .  A
C891        C896   1.401       .  A
C891        H898   1.082       .  S
C892        C893   1.414       .  A
C893        C894   1.405       .  A
C893        N900   1.427       .  S
C894        C895   1.402       .  A
C894        H899   1.083       .  S
C895        C896   1.404       .  A
C896        N897   1.426       .  S
N897        O901   1.262       .  A
N897        O902   1.261       .  A
N900        O904   1.262       .  A
N900        O903   1.261       .  A
C905        C906   1.402       .  A
C905        C910   1.396       .  A
C905        H912   1.084       .  S
C906       C2914   1.470       .  S
C906        C907   1.409       .  A
C907        C908   1.400       .  A
C907       N3218   1.428       .  S
C908        C909   1.403       .  A
C908        H913   1.084       .  S
C909        C910   1.410       .  A
C910        N911   1.429       .  S
N911        O915   1.261       .  A
N911        O916   1.262       .  A
N914       C3211   1.429   1_554  S
N914        O918   1.262       .  A
N914        O917   1.261       .  A
C919        C920   1.407       .  A
C919        C924   1.408       .  A
C919        H926   1.082       .  S
C920        C921   1.414       .  A
C921        C922   1.396       .  A
C921        N928   1.430   1_554  S
C922        C923   1.400       .  A
C922        H927   1.083       .  S
C923        C924   1.410       .  A
C924        N925   1.428       .  S
N925        O929   1.262       .  A
N925        O930   1.262       .  A
N928        O932   1.262       .  A
N928        O931   1.262       .  A
C933        C934   1.403       .  A
C933       C3242   1.410       .  A
C933       H3244   1.074       .  S
C934        C935   1.407       .  A
C935        C936   1.396       .  A
C935        N942   1.430       .  S
C936       C3241   1.406       .  A
C936        H941   1.055       .  S
C937        C938   1.421   1_556  A
C937       C3240   1.402       .  A
C938       C3237   1.408       .  A
C938        N939   1.429       .  S
N939        O943   1.262       .  A
N939        O944   1.262       .  A
H940       C3237   1.082       .  S
N942        O946   1.262       .  A
N942        O945   1.262       .  A
C947        C948   1.403       .  A
C947        C952   1.408       .  A
C947        H954   1.082       .  S
C948        C949   1.409       .  A
C949        C950   1.389       .  A
C949        N956   1.430       .  S
C950        C951   1.404       .  A
C950        H955   1.083       .  S
C951        C952   1.416       .  A
C952        N953   1.429       .  S
N953        O957   1.262       .  A
N953        O958   1.262       .  A
N956        O960   1.262       .  A
N956        O959   1.262       .  A
C961        C962   1.397       .  A
C961        C966   1.393       .  A
C961        H968   1.085       .  S
C962        C963   1.416       .  A
C963        C964   1.408       .  A
C963        N970   1.430       .  S
C964        C965   1.399       .  A
C964        H969   1.083       .  S
C965        C966   1.410       .  A
C966        N967   1.428       .  S
N967        O971   1.261       .  A
N967        O972   1.262       .  A
N970        O974   1.262       .  A
N970        O973   1.262       .  A
C975        C976   1.407       .  A
C975        C980   1.398       .  A
C975        H982   1.082       .  S
C976        C977   1.418       .  A
C977        C978   1.406       .  A
C977        N984   1.429       .  S
C978        C979   1.401       .  A
C978        H983   1.082       .  S
C979        C980   1.406       .  A
C980        N981   1.429       .  S
N981        O985   1.261       .  A
N981        O986   1.261       .  A
N984        O988   1.262       .  A
N984        O987   1.262       .  A
C989        C990   1.398       .  A
C989        C994   1.396       .  A
C989        H996   1.083       .  S
C990        C991   1.409       .  A
C991        C992   1.400       .  A
C991        N998   1.426       .  S
C992        C993   1.402       .  A
C992        H997   1.083       .  S
C993        C994   1.410       .  A
C994        N995   1.426       .  S
N995        O999   1.260       .  A
N995       O1000   1.262       .  A
N998       O1002   1.261       .  A
N998       O1001   1.262       .  A
C1003      C1004   1.405       .  A
C1003      C1008   1.411       .  A
C1003      H1010   1.080       .  S
C1004      C1005   1.410       .  A
C1005      C1006   1.394       .  A
C1005      N1012   1.428       .  S
C1006      C1007   1.401   1_545  A
C1006      H1011   1.082   1_545  S
C1007      C1008   1.415   1_565  A
C1008      N1009   1.430       .  S
N1009      O1013   1.261   1_545  A
N1009      O1014   1.262       .  A
N1012      O1016   1.262       .  A
N1012      O1015   1.262       .  A
C1017      C1018   1.402       .  A
C1017      C1022   1.393       .  A
C1017      H1024   1.068       .  S
C1018      C1019   1.412       .  A
C1019      C1020   1.410       .  A
C1019      N1026   1.428       .  S
C1020      C1021   1.407       .  A
C1020      H1025   1.080       .  S
C1021      C1022   1.410       .  A
C1022      N1023   1.430       .  S
N1023      O1027   1.261       .  A
N1023      O1028   1.262       .  A
N1026      O1030   1.262       .  A
N1026      O1029   1.262       .  A
C1031      C1032   1.402       .  A
C1031      C1036   1.408       .  A
C1031      H1038   1.082       .  S
C1032      C1033   1.401       .  A
C1033      C1034   1.391       .  A
C1033      N1040   1.429       .  S
C1034      C1035   1.408       .  A
C1034      H1039   1.083       .  S
C1035      C1036   1.418       .  A
C1036      N1037   1.428       .  S
N1037      O1041   1.262       .  A
N1037      O1042   1.262       .  A
N1040      O1044   1.260       .  A
N1040      O1043   1.262       .  A
C1045      C1046   1.401       .  A
C1045      C1050   1.401       .  A
C1045      H1052   1.080       .  S
C1046      C1047   1.404       .  A
C1047      C1048   1.389       .  A
C1047      N1054   1.430       .  S
C1048      C1049   1.401       .  A
C1048      H1053   1.078       .  S
C1049      C1050   1.411       .  A
C1050      N1051   1.429       .  S
N1051      O1055   1.262       .  A
N1051      O1056   1.261       .  A
N1054      O1058   1.261       .  A
N1054      O1057   1.262       .  A
C1059      C1060   1.404       .  A
C1059      C1064   1.398   1_655  A
C1059      H1066   1.082   1_655  S
C1060      C1061   1.414       .  A
C1061      C1062   1.395       .  A
C1061      N1068   1.431       .  S
C1062      C1063   1.400   1_655  A
C1062      H1067   1.083       .  S
C1063      C1064   1.406       .  A
C1064      N1065   1.427       .  S
N1065      O1069   1.262       .  A
N1065      O1070   1.262       .  A
N1068      O1072   1.262       .  A
N1068      O1071   1.262       .  A
C1073      C1078   1.409       .  A
C1073      C3378   1.412   1_565  A
C1073      H1080   1.082   1_565  S
C1074      C3069   1.491   1_554  S
C1074      C1075   1.416   1_545  A
C1074      C3377   1.412   1_544  A
C1075      C1076   1.394       .  A
C1075      N1082   1.431       .  S
C1076      C1077   1.405       .  A
C1076      H1081   1.082       .  S
C1077      C3382   1.408       .  A
C1078      C3381   1.409       .  A
C1078      N1079   1.428       .  S
N1079      O1083   1.262       .  A
N1079      O1084   1.262       .  A
N1082      O1086   1.262   1_565  A
N1082      O1085   1.262       .  A
C1087      C1088   1.406       .  A
C1087      C1092   1.402       .  A
C1087      H1094   1.083       .  S
C1088      C1089   1.414       .  A
C1089      C1090   1.396       .  A
C1089      N1096   1.429       .  S
C1090      C1091   1.399       .  A
C1090      H1095   1.083       .  S
C1091      C1092   1.408       .  A
C1092      N1093   1.427       .  S
N1093      O1097   1.262       .  A
N1093      O1098   1.262       .  A
N1096      O1100   1.262       .  A
N1096      O1099   1.262       .  A
C1101      C1102   1.397       .  A
C1101      C1106   1.396       .  A
C1101      H1108   1.073       .  S
C1102      C1103   1.407       .  A
C1103      C1104   1.393       .  A
C1103      N1110   1.429       .  S
C1104      C1105   1.404       .  A
C1104      H1109   1.082       .  S
C1105      C1106   1.413       .  A
C1106      N1107   1.429       .  S
N1107      O1111   1.262       .  A
N1107      O1112   1.262       .  A
N1110      O1114   1.262       .  A
N1110      O1113   1.262       .  A
C1115      C1116   1.402       .  A
C1115      C1120   1.391       .  A
C1115      H1122   1.082       .  S
C1116      C1117   1.413       .  A
C1117      C1118   1.408       .  A
C1117      N1124   1.429       .  S
C1118      C1119   1.407       .  A
C1118      H1123   1.082       .  S
C1119      C1120   1.415       .  A
C1120      N1121   1.433       .  S
N1121      O1125   1.262       .  A
N1121      O1126   1.262       .  A
N1124      O1128   1.262       .  A
N1124      O1127   1.262       .  A
C1129      C1130   1.401       .  A
C1129      C1134   1.399       .  A
C1129      H1136   1.083       .  S
C1130      C1131   1.415       .  A
C1131      C1132   1.416       .  A
C1131      N1138   1.427   1_554  S
C1132      C1133   1.407       .  A
C1132      H1137   1.082   1_554  S
C1133      C1134   1.409       .  A
C1134      N1135   1.426       .  S
N1135      O1139   1.262       .  A
N1135      O1140   1.262       .  A
N1138      O1142   1.262       .  A
N1138      O1141   1.262       .  A
C1143      C1144   1.399       .  A
C1143      C1148   1.404       .  A
C1143      H1150   1.082       .  S
C1144      C1145   1.404       .  A
C1145      C1146   1.390       .  A
C1145      N1152   1.429       .  S
C1146      C1147   1.403       .  A
C1146      H1151   1.082       .  S
C1147      C1148   1.416       .  A
C1148      N1149   1.429       .  S
N1149      O1153   1.262       .  A
N1149      O1154   1.262       .  A
N1152      O1156   1.261       .  A
N1152      O1155   1.262       .  A
C1157      C1158   1.399       .  A
C1157      C1162   1.398       .  A
C1157      H1164   1.081       .  S
C1158      C1159   1.414       .  A
C1159      C1160   1.403       .  A
C1159      N1166   1.430       .  S
C1160      C1161   1.400       .  A
C1160      H1165   1.082       .  S
C1161      C1162   1.411       .  A
C1162      N1163   1.429       .  S
N1163      O1167   1.261       .  A
N1163      O1168   1.262       .  A
N1166      O1170   1.262       .  A
N1166      O1169   1.262       .  A
C1171      C1172   1.403       .  A
C1171      C1176   1.396       .  A
C1171      H1178   1.084       .  S
C1172      C1173   1.411       .  A
C1173      C1174   1.395       .  A
C1173      N1180   1.431       .  S
C1174      C1175   1.400       .  A
C1174      H1179   1.084       .  S
C1175      C2804   1.457       .  S
C1175      C1176   1.405       .  A
C1176      N1177   1.431       .  S
N1177      O1181   1.262       .  A
N1177      O3486   1.262       .  A
N1180      O1184   1.262       .  A
N1180      O1183   1.262       .  A
O1182      N3481   1.262       .  A
C1185      C1186   1.406       .  A
C1185      C1190   1.400       .  A
C1185      H1192   1.082       .  S
C1186      C1187   1.419       .  A
C1187      C1188   1.406       .  A
C1187      N1194   1.428       .  S
C1188      C1189   1.400       .  A
C1188      H1193   1.083       .  S
C1189      C1190   1.409       .  A
C1190      N1191   1.429       .  S
N1191      O1195   1.262       .  A
N1191      O1196   1.262       .  A
N1194      O1198   1.262       .  A
N1194      O1197   1.262       .  A
C1199      C1200   1.408       .  A
C1199      C1204   1.411       .  A
C1199      H1206   1.082       .  S
C1200      C1201   1.413       .  A
C1201      C1202   1.396       .  A
C1201      N1208   1.429       .  S
C1202      C1203   1.401       .  A
C1202      H1207   1.083       .  S
C1203      C1204   1.411       .  A
C1204      N1205   1.428       .  S
N1205      O1209   1.262       .  A
N1205      O1210   1.262       .  A
N1208      O1212   1.262       .  A
N1208      O1211   1.262       .  A
C1213      C1214   1.400       .  A
C1213      C1218   1.397       .  A
C1213      H1220   1.084       .  S
C1214      C1215   1.409       .  A
C1215      C1216   1.399       .  A
C1215      N1222   1.433       .  S
C1216      C1217   1.403       .  A
C1216      H1221   1.084       .  S
C1217      C1218   1.411       .  A
C1218      N1219   1.429       .  S
N1219      O1223   1.262       .  A
N1219      O1224   1.262       .  A
N1222      O1226   1.262       .  A
N1222      O1225   1.262       .  A
C1227      C1228   1.404       .  A
C1227      C1232   1.399       .  A
C1227      H1234   1.083       .  S
C1228      C1229   1.409       .  A
C1229      C1230   1.398       .  A
C1229      N1236   1.428       .  S
C1230      C1231   1.403       .  A
C1230      H1235   1.083       .  S
C1231      C1232   1.409       .  A
C1232      N1233   1.429       .  S
N1233      O1237   1.262       .  A
N1233      O1238   1.261       .  A
N1236      O1240   1.262       .  A
N1236      O1239   1.262       .  A
C1241      C1242   1.401       .  A
C1241      C1246   1.404       .  A
C1241      H1248   1.083       .  S
C1242      C1243   1.412       .  A
C1243      C1244   1.408       .  A
C1243      N1250   1.428       .  S
C1244      C1245   1.403       .  A
C1244      H1249   1.083       .  S
C1245      C1246   1.413       .  A
C1246      N1247   1.429       .  S
N1247      O1251   1.262       .  A
N1247      O1252   1.262       .  A
N1250      O1254   1.262       .  A
N1250      O1253   1.261       .  A
C1255      C1256   1.410       .  A
C1255      C1260   1.402       .  A
C1255      H1262   1.081       .  S
C1256      C1257   1.414       .  A
C1257      C1258   1.404       .  A
C1257      N1264   1.429       .  S
C1258      C1259   1.401       .  A
C1258      H1263   1.074       .  S
C1259      C1260   1.404       .  A
C1260      N1261   1.428       .  S
N1261      O1265   1.262       .  A
N1261      O1266   1.262       .  A
N1264      O1268   1.262       .  A
N1264      O1267   1.262       .  A
C1269      C1274   1.409       .  A
C1269      C3574   1.400   1_554  A
C1269      H1276   1.082       .  S
C1270      C1271   1.410       .  A
C1270      C3573   1.400       .  A
C1271      C1272   1.397       .  A
C1271      N1278   1.430       .  S
C1272      C1273   1.403       .  A
C1272      H1277   1.083       .  S
C1273      C2816   1.491       .  S
C1273      C3578   1.423       .  A
C1274      C3577   1.422   1_554  A
C1274      N1275   1.429       .  S
N1275      O1279   1.262       .  A
N1275      O1280   1.262       .  A
N1278      O1282   1.262       .  A
N1278      O1281   1.262       .  A
C1283      C1284   1.391       .  A
C1283      C1288   1.392       .  A
C1283      H1290   1.085       .  S
C1284      C1285   1.402       .  A
C1285      C1286   1.403       .  A
C1285      N1292   1.428       .  S
C1286      C1287   1.409       .  A
C1286      H1291   1.084       .  S
C1287      C1288   1.422       .  A
C1288      N1289   1.432       .  S
N1289      O1293   1.262       .  A
N1289      O1294   1.262       .  A
N1292      O1296   1.262       .  A
N1292      O1295   1.262       .  A
C1297      C1298   1.401       .  A
C1297      C1302   1.405       .  A
C1297      H1304   1.082       .  S
C1298      C1299   1.403       .  A
C1299      C1300   1.386       .  A
C1299      N1306   1.428       .  S
C1300      C1301   1.405       .  A
C1300      H1305   1.082       .  S
C1301      C1302   1.415       .  A
C1302      N1303   1.428       .  S
N1303      O1307   1.262       .  A
N1303      O1308   1.262       .  A
N1306      O1310   1.260       .  A
N1306      O1309   1.262       .  A
C1311      C1312   1.399       .  A
C1311      C1316   1.403       .  A
C1311      H1318   1.083       .  S
C1312      C1313   1.409       .  A
C1313      C1314   1.400       .  A
C1313      N1320   1.427       .  S
C1314      C1315   1.403       .  A
C1314      H1319   1.083       .  S
C1315      C1316   1.420       .  A
C1316      N1317   1.429       .  S
N1317      O1321   1.262       .  A
N1317      O1322   1.262       .  A
N1320      O3628   1.262       .  A
N1320      O3627   1.262       .  A
O1323      N3624   1.262       .  A
O1324      N3624   1.261       .  A
C1325      C1326   1.408       .  A
C1325      C1330   1.406       .  A
C1325      H1332   1.082       .  S
C1326      C1327   1.415       .  A
C1327      C1328   1.398       .  A
C1327      N1334   1.430       .  S
C1328      C1329   1.404       .  A
C1328      H1333   1.083       .  S
C1329      C1330   1.412       .  A
C1330      N1331   1.428       .  S
N1331      O3639   1.262       .  A
N1331      O1336   1.262       .  A
N1334      O1338   1.262       .  A
N1334      O1337   1.262       .  A
O1335      N3635   1.261       .  A
C1339      C1340   1.410       .  A
C1339      C1344   1.413       .  A
C1339      H1346   1.082       .  S
C1340      C1341   1.413       .  A
C1341      C1342   1.397       .  A
C1341      N1348   1.429       .  S
C1342      C1343   1.402       .  A
C1342      H1347   1.083       .  S
C1343      C1344   1.412       .  A
C1344      N1345   1.428       .  S
N1345      O1349   1.262       .  A
N1345      O1350   1.262       .  A
N1348      O1352   1.261       .  A
N1348      O1351   1.262       .  A
C1353      C1354   1.400       .  A
C1353      C1358   1.394       .  A
C1353      H1360   1.080       .  S
C1354      C1355   1.412       .  A
C1355      C1356   1.406       .  A
C1355      N1362   1.428       .  S
C1356      C1357   1.405       .  A
C1356      H1361   1.082       .  S
C1357      C1358   1.411       .  A
C1358      N1359   1.429       .  S
N1359      O1363   1.262       .  A
N1359      O1364   1.262       .  A
N1362      O1366   1.262       .  A
N1362      O1365   1.262       .  A
C1367      C1368   1.404       .  A
C1367      C1372   1.405       .  A
C1367      H1374   1.073       .  S
C1368      C1369   1.406       .  A
C1369      C1370   1.390       .  A
C1369      N1376   1.428       .  S
C1370      C1371   1.406       .  A
C1370      H1375   1.081       .  S
C1371      C1372   1.414       .  A
C1372      N1373   1.428       .  S
N1373      O1377   1.262       .  A
N1373      O1378   1.262       .  A
N1376      O1380   1.262       .  A
N1376      O1379   1.261       .  A
C1381      C1382   1.403       .  A
C1381      C1386   1.403       .  A
C1381      H1388   1.077       .  S
C1382      C1383   1.403       .  A
C1383      C1384   1.400       .  A
C1383      N1390   1.429       .  S
C1384      C1385   1.411       .  A
C1384      H1389   1.082       .  S
C1385      C1386   1.411       .  A
C1386      N1387   1.429       .  S
N1387      O1391   1.262       .  A
N1387      O1392   1.262       .  A
N1390      O1394   1.262       .  A
N1390      O1393   1.262       .  A
C1395      C1400   1.399       .  A
C1395      C3700   1.403       .  A
C1395      H3706   1.081       .  S
C1396      C1397   1.414       .  A
C1396      C3699   1.399       .  A
C1397      C3702   1.406   1_554  A
C1397      N1404   1.428       .  S
C1398      C1399   1.403       .  A
C1398      C3701   1.407       .  A
C1398      H1403   1.082       .  S
C1399      C1400   1.411       .  A
C1400      N1401   1.429       .  S
N1401      O1405   1.262       .  A
N1401      O1406   1.262       .  A
H1402      C3699   1.075       .  S
N1404      O1408   1.262       .  A
N1404      O1407   1.262       .  A
C1409      C1410   1.401       .  A
C1409      C1414   1.400       .  A
C1409      H1416   1.083       .  S
C1410      C1411   1.407       .  A
C1411      C1412   1.400       .  A
C1411      N1418   1.428       .  S
C1412      C1413   1.403       .  A
C1412      H1417   1.082       .  S
C1413      C1414   1.407       .  A
C1414      N1415   1.428       .  S
N1415      O1419   1.261       .  A
N1415      O1420   1.262       .  A
N1418      O1422   1.262       .  A
N1418      O1421   1.262       .  A
C1423      C1424   1.403       .  A
C1423      C1428   1.391       .  A
C1423      H1430   1.083       .  S
C1424      C1425   1.419       .  A
C1425      C1426   1.412       .  A
C1425      N1432   1.428       .  S
C1426      C1427   1.403       .  A
C1426      H1431   1.082       .  S
C1427      C1428   1.408       .  A
C1428      N1429   1.428       .  S
N1429      O1433   1.261       .  A
N1429      O1434   1.262       .  A
N1432      O1436   1.262       .  A
N1432      O1435   1.261       .  A
C1437      C1438   1.401       .  A
C1437      C1442   1.390       .  A
C1437      H1444   1.082       .  S
C1438      C1439   1.411       .  A
C1439      C1440   1.411       .  A
C1439      N1446   1.428       .  S
C1440      C1441   1.406       .  A
C1440      H1445   1.080       .  S
C1441      C2677   1.478   1_554  S
C1441      C1442   1.410       .  A
C1442      N3747   1.431   1_554  S
N1443      C3746   1.429       .  S
N1443      O1447   1.261       .  A
N1443      O1448   1.262       .  A
N1446      O1450   1.262       .  A
N1446      O1449   1.262       .  A
C1451      C1452   1.404       .  A
C1451      C1456   1.389       .  A
C1451      H1458   1.082       .  S
C1452      C1453   1.419       .  A
C1453      C1454   1.410       .  A
C1453      N1460   1.431       .  S
C1454      C1455   1.401       .  A
C1454      H1459   1.082       .  S
C1455      C1456   1.400       .  A
C1456      N1457   1.425       .  S
N1457      O1461   1.261       .  A
N1457      O1462   1.260       .  A
N1460      O1464   1.262       .  A
N1460      O1463   1.262       .  A
C1465      C1470   1.406       .  A
C1465      C3770   1.407   1_554  A
C1465      H3776   1.082   1_554  S
C1466      C1467   1.411       .  A
C1466      C3769   1.406       .  A
C1467      C3772   1.396       .  A
C1467      N1474   1.429       .  S
C1468      C1469   1.401       .  A
C1468      C3771   1.400   1_554  A
C1468      H1473   1.083       .  S
C1469      C1470   1.408       .  A
C1470      N1471   1.428       .  S
N1471      O1475   1.261       .  A
N1471      O1476   1.262       .  A
H1472      C3769   1.082       .  S
N1474      O1478   1.262       .  A
N1474      O1477   1.261       .  A
C1479      C1480   1.405       .  A
C1479      C1484   1.407   1_655  A
C1479      H1486   1.082       .  S
C1480      C1481   1.414       .  A
C1481      C1482   1.395   1_655  A
C1481      N1488   1.429       .  S
C1482      C1483   1.403       .  A
C1482      H1487   1.083       .  S
C1483      C1484   1.416       .  A
C1484      N1485   1.428       .  S
N1485      O1489   1.262       .  A
N1485      O1490   1.262       .  A
N1488      O1492   1.262       .  A
N1488      O1491   1.262       .  A
C1493      C1494   1.407       .  A
C1493      C1498   1.407       .  A
C1493      H1500   1.079       .  S
C1494      C1495   1.403       .  A
C1495      C1496   1.392       .  A
C1495      N1502   1.426       .  S
C1496      C1497   1.399       .  A
C1496      H1501   1.066       .  S
C1497      C1498   1.409       .  A
C1498      N1499   1.428       .  S
N1499      O1503   1.262       .  A
N1499      O1504   1.262       .  A
N1502      O1506   1.262       .  A
N1502      O1505   1.262       .  A
C1507      C1508   1.400       .  A
C1507      C1512   1.404   1_455  A
C1507      H1514   1.083       .  S
C1508      C1509   1.407   1_455  A
C1509      C1510   1.392       .  A
C1509      N1516   1.427       .  S
C1510      C1511   1.400       .  A
C1510      H1515   1.084       .  S
C1511      C1512   1.413       .  A
C1512      N1513   1.428   1_655  S
N1513      O1517   1.262       .  A
N1513      O1518   1.261       .  A
N1516      O1520   1.259       .  A
N1516      O1519   1.262       .  A
C1521      C1522   1.399   1_655  A
C1521      C1526   1.392       .  A
C1521      H1528   1.084   1_655  S
C1522      C1523   1.416   1_455  A
C1523      C1524   1.412       .  A
C1523      N1530   1.430       .  S
C1524      C1525   1.408       .  A
C1524      H1529   1.082       .  S
C1525      C1526   1.414       .  A
C1526      N1527   1.430       .  S
N1527      O1531   1.261       .  A
N1527      O1532   1.262       .  A
N1530      O1534   1.262       .  A
N1530      O1533   1.261   1_655  A
C1535      C1536   1.405       .  A
C1535      C1540   1.398       .  A
C1535      H1542   1.083       .  S
C1536      C1537   1.412       .  A
C1537      C1538   1.407       .  A
C1537      N1544   1.427       .  S
C1538      C1539   1.408       .  A
C1538      H1543   1.082       .  S
C1539      C1540   1.413       .  A
C1540      N1541   1.429       .  S
N1541      O1545   1.262       .  A
N1541      O1546   1.262       .  A
N1544      O1548   1.261       .  A
N1544      O1547   1.262       .  A
C1549      C1550   1.411       .  A
C1549      C1554   1.409       .  A
C1549      H1556   1.082       .  S
C1550      C1551   1.414       .  A
C1551      C1552   1.389       .  A
C1551      N1558   1.432       .  S
C1552      C1553   1.402       .  A
C1552      H1557   1.083       .  S
C1553      C1554   1.410       .  A
C1554      N1555   1.428       .  S
N1555      O1559   1.262       .  A
N1555      O1560   1.262       .  A
N1558      O1562   1.262       .  A
N1558      O1561   1.262       .  A
C1563      C1564   1.399       .  A
C1563      C1568   1.399       .  A
C1563      H1570   1.085       .  S
C1564      C1565   1.405       .  A
C1565      C1566   1.403       .  A
C1565      N1572   1.426       .  S
C1566      C1567   1.403       .  A
C1566      H1571   1.084       .  S
C1567      C1568   1.412       .  A
C1568      N1569   1.429       .  S
N1569      O1573   1.262       .  A
N1569      O1574   1.261       .  A
N1572      O1576   1.261       .  A
N1572      O1575   1.262       .  A
C1577      C1578   1.400       .  A
C1577      C1582   1.395       .  A
C1577      H1584   1.083       .  S
C1578      C1579   1.412       .  A
C1579      C1580   1.411       .  A
C1579      N1586   1.427       .  S
C1580      C1581   1.406       .  A
C1580      H1585   1.082       .  S
C1581      C1582   1.413       .  A
C1582      N1583   1.429       .  S
N1583      O1587   1.262       .  A
N1583      O1588   1.261       .  A
N1586      O1590   1.262       .  A
N1586      O1589   1.262       .  A
C1591      C1592   1.399       .  A
C1591      C1596   1.406       .  A
C1591      H1598   1.078       .  S
C1592      C1593   1.406       .  A
C1593      C1594   1.398       .  A
C1593      N1600   1.429       .  S
C1594      C1595   1.404       .  A
C1594      H1599   1.060       .  S
C1595      C1596   1.420       .  A
C1596      N1597   1.429       .  S
N1597      O1601   1.262       .  A
N1597      O1602   1.262       .  A
N1600      O1604   1.262       .  A
N1600      O1603   1.261       .  A
C1605      C1606   1.402       .  A
C1605      C1610   1.395       .  A
C1605      H1612   1.083       .  S
C1606      C1607   1.412       .  A
C1607      C1608   1.403       .  A
C1607      N1614   1.427       .  S
C1608      C1609   1.400       .  A
C1608      H1613   1.079       .  S
C1609      C1610   1.404       .  A
C1610      N1611   1.426       .  S
N1611      O1615   1.260       .  A
N1611      O1616   1.261       .  A
N1614      O1618   1.260       .  A
N1614      O1617   1.262       .  A
C1619      C1620   1.402       .  A
C1619      C1624   1.395       .  A
C1619      H1626   1.083       .  S
C1620      C1621   1.412       .  A
C1621      C1622   1.406       .  A
C1621      N1628   1.429       .  S
C1622      C1623   1.402       .  A
C1622      H1627   1.083       .  S
C1623      C1624   1.407       .  A
C1624      N1625   1.428       .  S
N1625      O1629   1.261       .  A
N1625      O1630   1.261       .  A
N1628      O1632   1.262       .  A
N1628      O1631   1.260       .  A
C1633      C1634   1.404   1_455  A
C1633      C1638   1.395       .  A
C1633      H1640   1.083   1_455  S
C1634      C2695   1.491   1_554  S
C1634      C1635   1.418   1_654  A
C1635      C1636   1.409   1_556  A
C1635      N3946   1.428   1_455  S
C1636      C1637   1.402       .  A
C1636      H1641   1.082   1_554  S
C1637      C1638   1.413       .  A
C1638      N1639   1.431       .  S
N1639      O1643   1.261       .  A
N1639      O1644   1.262       .  A
N1642      C3939   1.428   1_655  S
N1642      O1646   1.262       .  A
N1642      O3949   1.262       .  A
O1645      N3946   1.262       .  A
C1647      C1648   1.404       .  A
C1647      C1652   1.391       .  A
C1647      H1654   1.083       .  S
C1648      C1649   1.417       .  A
C1649      C1650   1.414       .  A
C1649      N1656   1.428       .  S
C1650      C1651   1.409       .  A
C1650      H1655   1.082       .  S
C1651      C1652   1.413       .  A
C1652      N1653   1.429       .  S
N1653      O1657   1.261       .  A
N1653      O1658   1.262       .  A
N1656      O1660   1.262   1_554  A
N1656      O1659   1.262       .  A
C1661      C1662   1.404       .  A
C1661      C1666   1.400       .  A
C1661      H1668   1.083       .  S
C1662      C1663   1.411       .  A
C1663      C1664   1.387       .  A
C1663      N1670   1.425       .  S
C1664      C1665   1.397       .  A
C1664      H1669   1.084       .  S
C1665      C1666   1.410       .  A
C1666      N1667   1.428       .  S
N1667      O1671   1.261       .  A
N1667      O1672   1.262       .  A
N1670      O1674   1.261       .  A
N1670      O1673   1.262       .  A
C1675      C1676   1.404       .  A
C1675      C1680   1.394       .  A
C1675      H1682   1.083       .  S
C1676      C1677   1.410       .  A
C1677      C1678   1.398       .  A
C1677      N1684   1.429       .  S
C1678      C1679   1.401       .  A
C1678      H1683   1.083       .  S
C1679      C1680   1.405       .  A
C1680      N1681   1.429       .  S
N1681      O1685   1.261       .  A
N1681      O1686   1.262       .  A
N1684      O1688   1.262       .  A
N1684      O1687   1.262       .  A
C1689      C1690   1.405       .  A
C1689      C1694   1.396       .  A
C1689      H1696   1.083       .  S
C1690      C1691   1.419       .  A
C1691      C1692   1.406       .  A
C1691      N1698   1.428       .  S
C1692      C1693   1.400       .  A
C1692      H1697   1.083       .  S
C1693      C1694   1.411       .  A
C1694      N1695   1.431       .  S
N1695      O1699   1.262       .  A
N1695      O1700   1.262       .  A
N1698      O1702   1.262       .  A
N1698      O1701   1.262       .  A
C1703      C1704   1.402       .  A
C1703      C1708   1.393       .  A
C1703      H1710   1.083       .  S
C1704      C1705   1.410   1_545  A
C1705      C1706   1.400       .  A
C1705      N1712   1.428       .  S
C1706      C1707   1.400       .  A
C1706      H1711   1.083       .  S
C1707      C1708   1.405   1_565  A
C1708      N1709   1.429       .  S
N1709      O1713   1.261       .  A
N1709      O1714   1.262       .  A
N1712      O1716   1.262       .  A
N1712      O1715   1.262       .  A
C1717      C1718   1.400       .  A
C1717      C1722   1.393       .  A
C1717      H1724   1.083       .  S
C1718      C1719   1.412       .  A
C1719      C1720   1.410       .  A
C1719      N1726   1.427       .  S
C1720      C1721   1.406       .  A
C1720      H1725   1.082       .  S
C1721      C1722   1.409       .  A
C1722      N1723   1.426       .  S
N1723      O1727   1.262       .  A
N1723      O1728   1.261       .  A
N1726      O1730   1.261       .  A
N1726      O1729   1.261       .  A
C1731      C1732   1.409   1_565  A
C1731      C1736   1.398       .  A
C1731      H1738   1.082       .  S
C1732      C1733   1.413   1_545  A
C1733      C1734   1.401       .  A
C1733      N1740   1.428   1_565  S
C1734      C1735   1.400       .  A
C1734      H1739   1.080       .  S
C1735      C1736   1.403       .  A
C1736      N1737   1.429       .  S
N1737      O1741   1.262       .  A
N1737      O1742   1.262       .  A
N1740      O1744   1.261       .  A
N1740      O1743   1.262       .  A
C1745      C1746   1.404       .  A
C1745      C1750   1.398       .  A
C1745      H1752   1.083       .  S
C1746      C1747   1.414       .  A
C1747      C1748   1.413       .  A
C1747      N1754   1.431       .  S
C1748      C1749   1.411       .  A
C1748      H1753   1.082       .  S
C1749      C1750   1.416       .  A
C1750      N1751   1.429       .  S
N1751      O1755   1.262       .  A
N1751      O1756   1.262       .  A
N1754      O1758   1.262       .  A
N1754      O1757   1.262       .  A
C1759      C1760   1.401       .  A
C1759      C1764   1.404       .  A
C1759      H1766   1.083       .  S
C1760      C1761   1.404       .  A
C1761      C1762   1.387       .  A
C1761      N1768   1.427       .  S
C1762      C1763   1.404       .  A
C1762      H1767   1.083       .  S
C1763      C1764   1.416       .  A
C1764      N1765   1.427       .  S
N1765      O1769   1.261       .  A
N1765      O1770   1.261       .  A
N1768      O1772   1.262       .  A
N1768      O1771   1.262       .  A
C1773      C1774   1.408       .  A
C1773      C4082   1.410   1_554  A
C1773      H1780   1.084       .  S
C1774      C4079   1.410       .  A
C1775      C1776   1.391       .  A
C1775      C4078   1.408       .  A
C1775      N4086   1.430       .  S
C1776      C1777   1.402       .  A
C1776      H1781   1.084       .  S
C1777      C1778   1.414       .  A
C1778      C4077   1.409       .  A
C1778      N1779   1.429       .  S
N1779      O1783   1.262       .  A
N1779      O1784   1.262       .  A
N1782      C4079   1.429       .  S
N1782      O4090   1.260       .  A
N1782      O1785   1.262       .  A
O1786      N4086   1.261       .  A
C1787      C1788   1.399       .  A
C1787      C1792   1.397       .  A
C1787      H4098   1.085       .  S
C1788      C2562   1.465       .  S
C1788      C1789   1.404       .  A
C1789      C1790   1.400       .  A
C1789      N1796   1.427       .  S
C1790      C1791   1.405       .  A
C1790      H1795   1.084       .  S
C1791      C1792   1.414       .  A
C1792      N1793   1.430       .  S
N1793      O1797   1.262       .  A
N1793      O1798   1.262       .  A
H1794      C4091   1.084   1_554  S
N1796      O1800   1.262       .  A
N1796      O1799   1.261       .  A
C1801      C1802   1.408       .  A
C1801      C1806   1.404       .  A
C1801      H1808   1.082       .  S
C1802      C1803   1.414       .  A
C1803      C1804   1.402       .  A
C1803      N1810   1.430       .  S
C1804      C1805   1.403       .  A
C1804      H1809   1.083       .  S
C1805      C1806   1.407       .  A
C1806      N1807   1.428       .  S
N1807      O1811   1.262       .  A
N1807      O1812   1.262       .  A
N1810      O1814   1.262       .  A
N1810      O1813   1.262       .  A
C1815      C1816   1.412       .  A
C1815      C1820   1.418       .  A
C1815      H1822   1.083       .  S
C1816      C1817   1.410       .  A
C1817      C1818   1.387       .  A
C1817      N1824   1.426       .  S
C1818      C1819   1.397       .  A
C1818      H1823   1.082       .  S
C1819      C1820   1.410       .  A
C1820      N1821   1.426       .  S
N1821      O1825   1.260       .  A
N1821      O1826   1.262       .  A
N1824      O1828   1.261       .  A
N1824      O1827   1.262       .  A
C1829      C1830   1.406       .  A
C1829      C1834   1.410   1_545  A
C1829      H1836   1.082       .  S
C1830      C1831   1.418       .  A
C1831      C1832   1.392   1_545  A
C1831      N1838   1.432       .  S
C1832      C1833   1.404       .  A
C1832      H1837   1.083       .  S
C1833      C1834   1.416       .  A
C1834      N1835   1.427       .  S
N1835      O1839   1.262       .  A
N1835      O1840   1.262       .  A
N1838      O1842   1.261       .  A
N1838      O1841   1.262       .  A
C1843      C1844   1.406       .  A
C1843      C4152   1.384   1_554  A
C1843      H1850   1.082       .  S
C1844      C1845   1.415       .  A
C1845      C4150   1.402   1_554  A
C1845      N1852   1.428       .  S
C1846      C1847   1.401       .  A
C1846      C4149   1.396       .  A
C1846      H1851   1.082       .  S
C1847      C1848   1.410       .  A
C1848      C4147   1.399       .  A
C1848      N1849   1.427       .  S
N1849      O1853   1.262       .  A
N1849      O1854   1.262       .  A
N1852      O1856   1.262       .  A
N1852      O1855   1.262       .  A
C1857      C1858   1.402       .  A
C1857      C1862   1.396       .  A
C1857      H1864   1.083       .  S
C1858      C1859   1.415       .  A
C1859      C1860   1.399       .  A
C1859      N1866   1.428       .  S
C1860      C1861   1.396       .  A
C1860      H1865   1.082       .  S
C1861      C1862   1.407       .  A
C1862      N1863   1.429       .  S
N1863      O1867   1.262       .  A
N1863      O1868   1.262       .  A
N1866      O1870   1.261       .  A
N1866      O1869   1.262       .  A
C1871      C1872   1.397       .  A
C1871      C1876   1.393       .  A
C1871      H1878   1.083       .  S
C1872      C1873   1.408       .  A
C1873      C1874   1.398       .  A
C1873      N1880   1.429       .  S
C1874      C1875   1.402       .  A
C1874      H1879   1.083       .  S
C1875      C1876   1.409       .  A
C1876      N1877   1.426       .  S
N1877      O1881   1.262       .  A
N1877      O1882   1.262       .  A
N1880      O1884   1.262       .  A
N1880      O1883   1.261       .  A
C1885      C1886   1.403       .  A
C1885      C1890   1.396       .  A
C1885      H1892   1.083       .  S
C1886      C1887   1.407       .  A
C1887      C1888   1.407       .  A
C1887      N1894   1.428       .  S
C1888      C1889   1.411       .  A
C1888      H1893   1.082       .  S
C1889      C1890   1.414       .  A
C1890      N1891   1.430       .  S
N1891      O1895   1.260       .  A
N1891      O1896   1.261       .  A
N1894      O1898   1.262       .  A
N1894      O1897   1.262       .  A
C1899      C1900   1.395       .  A
C1899      C1904   1.386       .  A
C1899      H1906   1.083       .  S
C1900      C1901   1.411       .  A
C1901      C1902   1.413       .  A
C1901      N1908   1.429       .  S
C1902      C1903   1.410       .  A
C1902      H1907   1.083       .  S
C1903      C1904   1.419       .  A
C1904      N1905   1.433       .  S
N1905      O1909   1.262       .  A
N1905      O1910   1.261       .  A
N1908      O1912   1.262       .  A
N1908      O1911   1.262       .  A
C1913      C1914   1.405       .  A
C1913      C1918   1.403       .  A
C1913      H1920   1.082       .  S
C1914      C1915   1.412       .  A
C1915      C1916   1.394       .  A
C1915      N1922   1.428       .  S
C1916      C1917   1.399       .  A
C1916      H1921   1.082       .  S
C1917      C1918   1.409       .  A
C1918      N1919   1.426       .  S
N1919      O1923   1.261       .  A
N1919      O1924   1.262       .  A
N1922      O1926   1.261       .  A
N1922      O1925   1.262       .  A
C1927      C1928   1.407       .  A
C1927      C1932   1.389       .  A
C1927      H1934   1.082       .  S
C1928      C1929   1.417       .  A
C1929      C1930   1.406       .  A
C1929      N1936   1.429       .  S
C1930      C1931   1.401       .  A
C1930      H1935   1.083       .  S
C1931      C1932   1.401       .  A
C1932      N1933   1.429       .  S
N1933      O1937   1.261       .  A
N1933      O1938   1.261       .  A
N1936      O1940   1.262       .  A
N1936      O1939   1.262       .  A
C1941      C1942   1.404       .  A
C1941      C1946   1.403       .  A
C1941      H1948   1.083   1_545  S
C1942      C2530   1.488   1_545  S
C1942      C4247   1.415       .  A
C1943      C1944   1.410       .  A
C1943      C4246   1.417   1_554  A
C1943      N1950   1.429       .  S
C1944      C4249   1.402   1_554  A
C1944      H1949   1.082       .  S
C1945      C1946   1.410       .  A
C1945      C4248   1.403       .  A
C1946      N1947   1.429       .  S
N1947      O1951   1.262       .  A
N1947      O1952   1.262       .  A
N1950      O1954   1.261   1_545  A
N1950      O1953   1.262       .  A
C1955      C1956   1.411       .  A
C1955      C1960   1.408       .  A
C1955      H1962   1.082       .  S
C1956      C1957   1.415       .  A
C1957      C1958   1.392       .  A
C1957      N1964   1.429       .  S
C1958      C1959   1.400       .  A
C1958      H1963   1.083       .  S
C1959      C1960   1.408       .  A
C1960      N1961   1.428       .  S
N1961      O1965   1.262       .  A
N1961      O1966   1.262       .  A
N1964      O1968   1.262       .  A
N1964      O1967   1.262       .  A
C1969      C1970   1.401       .  A
C1969      C1974   1.394       .  A
C1969      H1976   1.083       .  S
C1970      C1971   1.409       .  A
C1971      C1972   1.408   1_554  A
C1971      N1978   1.428   1_554  S
C1972      C1973   1.407   1_556  A
C1972      H4281   1.082       .  S
C1973      C2409   1.479   1_554  S
C1973      C1974   1.410       .  A
C1974      N1975   1.429       .  S
N1975      O1979   1.262       .  A
N1975      O4284   1.261       .  A
H1977      C4276   1.082       .  S
N1978      O4286   1.262       .  A
N1978      O1981   1.262       .  A
O1980      N4279   1.262       .  A
O1982      N4282   1.261       .  A
C1983      C1984   1.402       .  A
C1983      C1988   1.395       .  A
C1983      H1990   1.073       .  S
C1984      C1985   1.404       .  A
C1985      C1986   1.404       .  A
C1985      N1992   1.429       .  S
C1986      C1987   1.408       .  A
C1986      H1991   1.008       .  S
C1987      C1988   1.412       .  A
C1988      N1989   1.430       .  S
N1989      O1993   1.261       .  A
N1989      O1994   1.262       .  A
N1992      O1996   1.262       .  A
N1992      O1995   1.262       .  A
C1997      C1998   1.406       .  A
C1997      C2002   1.403       .  A
C1997      H2004   1.082       .  S
C1998      C1999   1.411       .  A
C1999      C2000   1.390       .  A
C1999      N2006   1.427       .  S
C2000      C2001   1.401       .  A
C2000      H2005   1.083       .  S
C2001      C2002   1.414       .  A
C2002      N2003   1.428       .  S
N2003      O2007   1.262       .  A
N2003      O2008   1.261       .  A
N2006      O2010   1.262       .  A
N2006      O2009   1.260       .  A
C2011      C2012   1.402       .  A
C2011      C2016   1.410       .  A
C2011      H2018   1.082       .  S
C2012      C2013   1.413       .  A
C2013      C2014   1.395       .  A
C2013      N2020   1.431       .  S
C2014      C2015   1.404       .  A
C2014      H2019   1.082       .  S
C2015      C2016   1.421       .  A
C2016      N2017   1.428       .  S
N2017      O2021   1.262       .  A
N2017      O2022   1.262       .  A
N2020      O2024   1.262       .  A
N2020      O2023   1.262       .  A
C2025      C2026   1.412       .  A
C2025      C2030   1.411       .  A
C2025      H2032   1.082       .  S
C2026      C2027   1.416       .  A
C2027      C2028   1.397       .  A
C2027      N2034   1.429       .  S
C2028      C2029   1.401       .  A
C2028      H2033   1.081       .  S
C2029      C2030   1.410       .  A
C2030      N2031   1.428       .  S
N2031      O2035   1.261       .  A
N2031      O2036   1.262       .  A
N2034      O2038   1.261       .  A
N2034      O2037   1.262       .  A
C2039      C2040   1.405       .  A
C2039      C2044   1.402       .  A
C2039      H2046   1.084       .  S
C2040      C2041   1.421       .  A
C2041      C4346   1.394       .  A
C2041      N2048   1.432       .  S
C2042      C2043   1.399       .  A
C2042      C4345   1.400   1_554  A
C2042      H2047   1.083       .  S
C2043      C4348   1.411       .  A
C2044      C4347   1.406       .  A
C2044      N4349   1.428       .  S
N2045      C4348   1.428       .  S
N2045      O4353   1.262       .  A
N2045      O2050   1.261       .  A
N2048      O2052   1.262       .  A
N2048      O2051   1.261       .  A
O2049      N4349   1.261       .  A
C2053      C2054   1.406       .  A
C2053      C2058   1.392       .  A
C2053      H2060   1.082       .  S
C2054      C2055   1.417       .  A
C2055      C2056   1.403       .  A
C2055      N2062   1.429       .  S
C2056      C2057   1.399       .  A
C2056      H2061   1.080       .  S
C2057      C2058   1.403       .  A
C2058      N2059   1.429       .  S
N2059      O2063   1.261       .  A
N2059      O2064   1.262       .  A
N2062      O2066   1.262       .  A
N2062      O2065   1.262       .  A
C2067      C2068   1.406       .  A
C2067      C2072   1.404       .  A
C2067      H2074   1.082       .  S
C2068      C2069   1.421       .  A
C2069      C2070   1.406       .  A
C2069      N2076   1.428       .  S
C2070      C2071   1.399       .  A
C2070      H2075   1.083       .  S
C2071      C2072   1.410       .  A
C2072      N2073   1.427       .  S
N2073      O2077   1.261       .  A
N2073      O2078   1.262       .  A
N2076      O2080   1.262       .  A
N2076      O2079   1.262       .  A
C2081      C2082   1.397       .  A
C2081      C2086   1.390       .  A
C2081      H2088   1.084       .  S
C2082      C2083   1.408       .  A
C2083      C2084   1.402       .  A
C2083      N2090   1.428       .  S
C2084      C2085   1.406       .  A
C2084      H2089   1.082       .  S
C2085      C2086   1.417       .  A
C2086      N2087   1.433       .  S
N2087      O2091   1.262       .  A
N2087      O2092   1.262       .  A
N2090      O2094   1.262       .  A
N2090      O2093   1.262       .  A
C2095      C2096   1.403       .  A
C2095      C4404   1.387       .  A
C2095      H2102   1.083       .  S
C2096      C4401   1.414       .  A
C2097      C2098   1.401       .  A
C2097      C4400   1.416   1_554  A
C2097      N4408   1.429       .  S
C2098      C2099   1.401       .  A
C2098      H2103   1.072       .  S
C2099      C2100   1.405       .  A
C2100      C4399   1.388   1_554  A
C2100      N2101   1.425       .  S
N2101      O2105   1.261       .  A
N2101      O2106   1.262       .  A
N2104      C4401   1.429       .  S
N2104      O4412   1.262       .  A
N2104      O2107   1.262       .  A
O2108      N4408   1.262   1_556  A
C2109      C2110   1.402       .  A
C2109      C2114   1.407       .  A
C2109      H2116   1.070       .  S
C2110      C2111   1.405       .  A
C2111      C2112   1.393       .  A
C2111      N2118   1.429       .  S
C2112      C2113   1.403       .  A
C2112      H2117   1.081       .  S
C2113      C2435   1.478   1_554  S
C2113      C2114   1.413       .  A
C2114      N4419   1.429   1_554  S
N2115      C4418   1.428       .  S
N2115      O2119   1.262       .  A
N2115      O2120   1.262       .  A
N2118      O2122   1.262       .  A
N2118      O2121   1.260       .  A
C2123      C2124   1.411       .  A
C2123      C2128   1.407       .  A
C2123      H2130   1.082       .  S
C2124      C2125   1.413       .  A
C2125      C2126   1.390       .  A
C2125      N2132   1.430       .  S
C2126      C2127   1.405       .  A
C2126      H2131   1.082       .  S
C2127      C2128   1.410       .  A
C2128      N2129   1.428       .  S
N2129      O2133   1.262       .  A
N2129      O2134   1.262       .  A
N2132      O2136   1.262       .  A
N2132      O2135   1.262       .  A
C2137      C2138   1.402       .  A
C2137      C2142   1.393       .  A
C2137      H2144   1.083       .  S
C2138      C2139   1.414       .  A
C2139      C2140   1.411       .  A
C2139      N2146   1.429       .  S
C2140      C2141   1.407       .  A
C2140      H2145   1.082       .  S
C2141      C2142   1.412       .  A
C2142      N2143   1.430       .  S
N2143      O2147   1.262       .  A
N2143      O2148   1.261       .  A
N2146      O2150   1.262       .  A
N2146      O2149   1.261       .  A
C2151      C2152   1.400       .  A
C2151      C2156   1.405       .  A
C2151      H2158   1.082       .  S
C2152      C2153   1.409       .  A
C2153      C2154   1.394       .  A
C2153      N2160   1.431       .  S
C2154      C2155   1.405       .  A
C2154      H2159   1.082       .  S
C2155      C2156   1.418       .  A
C2156      N2157   1.429       .  S
N2157      O2161   1.262       .  A
N2157      O2162   1.262       .  A
N2160      O2164   1.262       .  A
N2160      O2163   1.262       .  A
C2165      C2166   1.402       .  A
C2165      C2170   1.394       .  A
C2165      H2172   1.083       .  S
C2166      C2167   1.410       .  A
C2167      C2168   1.399       .  A
C2167      N2174   1.428       .  S
C2168      C2169   1.400       .  A
C2168      H2173   1.083       .  S
C2169      C2170   1.406       .  A
C2170      N2171   1.429       .  S
N2171      O2175   1.262       .  A
N2171      O2176   1.262       .  A
N2174      O2178   1.262       .  A
N2174      O2177   1.262       .  A
C2179      C2180   1.406       .  A
C2179      C2184   1.401       .  A
C2179      H2186   1.082       .  S
C2180      C2181   1.416       .  A
C2181      C2182   1.386       .  A
C2181      N2188   1.431       .  S
C2182      C2183   1.394       .  A
C2182      H2187   1.081       .  S
C2183      C2184   1.405       .  A
C2184      N2185   1.428       .  S
N2185      O2189   1.262       .  A
N2185      O2190   1.262       .  A
N2188      O2192   1.262       .  A
N2188      O2191   1.262       .  A
C2193      C2194   1.396       .  A
C2193      C2198   1.396       .  A
C2193      H2200   1.085       .  S
C2194      C2195   1.405       .  A
C2195      C2196   1.405       .  A
C2195      N2202   1.430       .  S
C2196      C2197   1.407       .  A
C2196      H2201   1.084       .  S
C2197      C2198   1.416       .  A
C2198      N2199   1.429       .  S
N2199      O2203   1.262       .  A
N2199      O2204   1.262       .  A
N2202      O2206   1.262       .  A
N2202      O2205   1.261       .  A
C2207      C2208   1.401       .  A
C2207      C2212   1.393       .  A
C2207      H2214   1.083       .  S
C2208      C2209   1.419       .  A
C2209      C2210   1.407       .  A
C2209      N2216   1.429       .  S
C2210      C2211   1.402       .  A
C2210      H2215   1.082       .  S
C2211      C2212   1.418       .  A
C2212      N2213   1.432       .  S
N2213      O2217   1.261       .  A
N2213      O2218   1.262       .  A
N2216      O2220   1.262       .  A
N2216      O2219   1.262       .  A
C2221      C2222   1.404   1_455  A
C2221      C2226   1.400       .  A
C2221      H2228   1.083   1_455  S
C2222      C2223   1.419   1_655  A
C2223      C2224   1.405       .  A
C2223      N2230   1.428       .  S
C2224      C2225   1.400       .  A
C2224      H2229   1.083       .  S
C2225      C2226   1.409       .  A
C2226      N2227   1.427       .  S
N2227      O2231   1.262       .  A
N2227      O2232   1.262       .  A
N2230      O2234   1.262   1_455  A
N2230      O2233   1.262       .  A
C2235      C2236   1.405       .  A
C2235      C2240   1.409       .  A
C2235      H2242   1.082       .  S
C2236      C2237   1.407       .  A
C2237      C2238   1.392       .  A
C2237      N2244   1.428       .  S
C2238      C2239   1.399       .  A
C2238      H2243   1.076       .  S
C2239      C2240   1.414       .  A
C2240      N2241   1.428       .  S
N2241      O2245   1.262       .  A
N2241      O2246   1.261       .  A
N2244      O2248   1.262       .  A
N2244      O2247   1.261       .  A
C2249      C2250   1.400       .  A
C2249      C2254   1.389       .  A
C2249      H2256   1.082       .  S
C2250      C2251   1.414       .  A
C2251      C2252   1.413       .  A
C2251      N2258   1.428       .  S
C2252      C2253   1.409       .  A
C2252      H2257   1.082       .  S
C2253      C2254   1.415       .  A
C2254      N2255   1.432       .  S
N2255      O2259   1.261       .  A
N2255      O2260   1.262       .  A
N2258      O2262   1.262       .  A
N2258      O2261   1.262       .  A
C2263      C2264   1.399       .  A
C2263      C2268   1.391       .  A
C2263      H2270   1.084       .  S
C2264      C2265   1.408       .  A
C2265      C2266   1.414       .  A
C2265      N2272   1.429       .  S
C2266      C2267   1.408       .  A
C2266      H2271   1.083       .  S
C2267      C2268   1.408       .  A
C2268      N2269   1.429       .  S
N2269      O2273   1.262       .  A
N2269      O2274   1.261       .  A
N2272      O2276   1.262       .  A
N2272      O2275   1.261       .  A
C2277      C2278   1.409       .  A
C2277      C2282   1.407       .  A
C2277      H2284   1.084       .  S
C2278      C2279   1.411       .  A
C2279      C2280   1.392       .  A
C2279      N2286   1.428       .  S
C2280      C2281   1.399       .  A
C2280      H2285   1.085       .  S
C2281      C2282   1.408       .  A
C2282      N2283   1.430       .  S
N2283      O2287   1.261       .  A
N2283      O2288   1.262       .  A
N2286      O2290   1.261       .  A
N2286      O2289   1.262       .  A
C2291      C2292   1.396       .  A
C2291      C2296   1.397       .  A
C2291      H2298   1.072       .  S
C2292      C2293   1.411       .  A
C2293      C2294   1.398       .  A
C2293      N2300   1.429       .  S
C2294      C2295   1.399       .  A
C2294      H2299   1.083       .  S
C2295      C2296   1.407       .  A
C2296      N2297   1.425       .  S
N2297      O2301   1.262       .  A
N2297      O2302   1.262       .  A
N2300      O2304   1.260       .  A
N2300      O2303   1.261       .  A
O2305      C2320   1.257       .  A
O2305     Al2313   1.877       .  S
C2306      O2316   1.265       .  A
C2306      O2307   1.267       .  A
C2306      C4582   1.483       .  S
O2307     Al2309   1.926       .  S
O2308      C2310   1.254       .  A
O2308     Al2309   1.886       .  S
Al2309     O2317   1.866       .  S
Al2309     O2319   1.928       .  S
Al2309     O2318   1.779       .  S
C2310      O2323   1.262       .  A
C2310      C4529   1.477       .  S
O2311      C2321   1.269       .  A
O2311     Al2313   1.923       .  S
O2312      C2325   1.265       .  A
O2312     Al2322   1.924       .  S
Al2313     O2326   1.898       .  S
Al2313     O2323   1.938       .  S
Al2313     O2318   1.787       .  S
O2314      C2321   1.267       .  A
O2314     Al2322   1.906       .  S
O2315      C2324   1.259       .  A
O2315     Al2322   1.921       .  S
O2316     Al2322   1.899       .  S
O2317      C2324   1.252       .  A
O2318     Al2322   1.782       .  S
O2319      C2320   1.265       .  A
C2320      C4596   1.463       .  S
C2321      C4554   1.485       .  S
C2324      C4543   1.476       .  S
C2325      O2326   1.262       .  A
C2325      C4568   1.472       .  S
O2327      C2342   1.257       .  A
O2327     Al2335   1.863       .  S
C2328      O2338   1.261       .  A
C2328      O2329   1.268       .  A
C2328      C4470   1.473       .  S
O2329     Al2331   1.934       .  S
O2330      C2332   1.253       .  A
O2330     Al2331   1.873       .  S
Al2331     O2339   1.885       .  S
Al2331     O2341   1.910       .  S
Al2331     O2340   1.787       .  S
C2332      O2345   1.260       .  A
C2332      C4456   1.468       .  S
O2333      C2343   1.265       .  A
O2333     Al2335   1.931       .  S
O2334      C2347   1.264       .  A
O2334     Al2344   1.908       .  S
Al2335     O2348   1.915       .  S
Al2335     O2345   1.923       .  S
Al2335     O2340   1.794       .  S
O2336      C2343   1.260       .  A
O2336     Al2344   1.878       .  S
O2337      C2346   1.254       .  A
O2337     Al2344   1.899       .  S
O2338     Al2344   1.868       .  S
O2339      C2346   1.252       .  A
O2340     Al2344   1.780       .  S
O2341      C2342   1.264       .  A
C2342      C4484   1.474       .  S
C2343      C4512   1.491       .  S
C2346      C4540   1.478       .  S
C2347      O2348   1.266       .  A
C2347      C4498   1.463       .  S
O2349      C2364   1.259       .  A
O2349     Al2357   1.875       .  S
C2350      O2360   1.261       .  A
C2350      O2351   1.267       .  A
C2350      C4386   1.476       .  S
O2351     Al2353   1.935       .  S
O2352      C2354   1.253       .  A
O2352     Al2353   1.875       .  S
Al2353     O2361   1.883       .  S
Al2353     O2363   1.914       .  S
Al2353     O2362   1.788       .  S
C2354      O2367   1.262       .  A
C2354      C4375   1.468       .  S
O2355      C2365   1.265       .  A
O2355     Al2357   1.927       .  S
O2356      C2369   1.263       .  A
O2356     Al2366   1.909       .  S
Al2357     O2370   1.919       .  S
Al2357     O2367   1.929       .  S
Al2357     O2362   1.788       .  S
O2358      C2365   1.264       .  A
O2358     Al2366   1.899       .  S
O2359      C2368   1.257       .  A
O2359     Al2366   1.910       .  S
O2360     Al2366   1.868       .  S
O2361      C2368   1.253       .  A
O2362     Al2366   1.781       .  S
O2363      C2364   1.263       .  A
C2364      C4403   1.474       .  S
C2365      C4442   1.488       .  S
C2368      C4428   1.479       .  S
C2369      O2370   1.267       .  A
C2369      C4414   1.472       .  S
O2371      C2386   1.272       .  A
O2371     Al2379   1.923       .  S
C2372      O2382   1.271       .  A
C2372      O2373   1.265       .  A
C2372      C4347   1.463       .  S
O2373     Al2375   1.884       .  S
O2374      C2376   1.257       .  A
O2374     Al2375   1.902       .  S
Al2375     O2383   1.889       .  S
Al2375     O2385   1.905       .  S
Al2375     O2384   1.785       .  S
C2376      O2389   1.261       .  A
C2376      C4316   1.477       .  S
O2377      C2387   1.263       .  A
O2377     Al2379   1.923       .  S
O2378      C2391   1.264       .  A
O2378     Al2388   1.928       .  S
Al2379     O2392   1.881       .  S
Al2379     O2389   1.925       .  S
Al2379     O2384   1.776       .  S
O2380      C2387   1.257       .  A
O2380     Al2388   1.888       .  S
O2381      C2390   1.256       .  A
O2381     Al2388   1.910       .  S
O2382     Al2388   1.939       .  S
O2383      C2390   1.254       .  A
O2384     Al2388   1.784       .  S
O2385      C2386   1.267       .  A
C2386      C4358   1.486       .  S
C2387      C4330   1.496       .  S
C2390      C4431   1.473       .  S
C2391      O2392   1.258       .  A
C2391      C4501   1.479       .  S
O2393      C2408   1.259       .  A
O2393     Al2401   1.872       .  S
C2394      O2404   1.262       .  A
C2394      O2395   1.267       .  A
C2394      C4288   1.468       .  S
O2396      C2398   1.254       .  A
O2396     Al2397   1.884       .  S
Al2397     O2405   1.873       .  S
Al2397     O2407   1.916       .  S
Al2397     O2406   1.783       .  S
C2398      O2411   1.262       .  A
C2398      C4249   1.479       .  S
O2399      C2409   1.264       .  A
O2399     Al2401   1.909       .  S
O2400      C2413   1.265       .  A
O2400     Al2410   1.921       .  S
Al2401     O2414   1.920       .  S
Al2401     O2411   1.936       .  S
Al2401     O2406   1.783       .  S
O2402      C2409   1.265       .  A
O2402     Al2410   1.918       .  S
O2403      C2412   1.260       .  A
O2403     Al2410   1.928       .  S
O2405      C2412   1.251       .  A
O2406     Al2410   1.787       .  S
O2407      C2408   1.265       .  A
C2408      C4302   1.479       .  S
C2412      C4260   1.489       .  S
C2413      O2414   1.267       .  A
C2413      C4571   1.479       .  S
O2415      C2430   1.258       .  A
C2416      O2426   1.275       .  A
C2416      O2417   1.268       .  A
C2416      C4218   1.465       .  S
O2417     Al2419   1.881       .  S
O2418      C2420   1.257       .  A
O2418     Al2419   1.904       .  S
Al2419     O2427   1.873       .  S
Al2419     O2429   1.911       .  S
Al2419     O2428   1.786       .  S
C2420      O2433   1.262       .  A
C2420      C4190   1.480       .  S
O2421      C2431   1.255       .  A
O2421     Al2423   1.906       .  S
O2422      C2435   1.265       .  A
O2422     Al2432   1.924       .  S
Al2423     O2436   1.871   1_556  S
Al2423     O2433   1.931       .  S
Al2423     O2428   1.782       .  S
O2424      C2431   1.255       .  A
O2424     Al2432   1.876       .  S
O2425      C2434   1.252       .  A
O2425     Al2432   1.916       .  S
O2426     Al2432   1.934       .  S
O2427      C2434   1.249       .  A
O2428     Al2432   1.786       .  S
C2430      C4232   1.475       .  S
C2431      C4204   1.493       .  S
C2434      C4263   1.482       .  S
C2435      O2436   1.261   1_556  A
O2437      C2452   1.258       .  A
O2437     Al2445   1.872       .  S
C2438      O2448   1.264       .  A
C2438      O2439   1.270       .  A
C2438      C4151   1.449       .  S
O2439     Al2441   1.928       .  S
O2440      C2442   1.261       .  A
O2440     Al2441   1.905       .  S
Al2441     O2449   1.934       .  S
Al2441     O2451   1.906       .  S
Al2441     O2450   1.782       .  S
C2442      O2455   1.261       .  A
C2442      C4193   1.494       .  S
O2443      C2453   1.261       .  A
O2443     Al2445   1.929       .  S
O2444      C2457   1.264       .  A
O2444     Al2454   1.891       .  S
Al2445     O2458   1.928       .  S
Al2445     O2455   1.905       .  S
Al2445     O2450   1.775       .  S
O2446      C2453   1.257       .  A
O2446     Al2454   1.905       .  S
O2447      C2456   1.250       .  A
O2447     Al2454   1.881       .  S
O2448     Al2454   1.866       .  S
O2449      C2456   1.261       .  A
O2450     Al2454   1.774       .  S
O2451      C2452   1.262       .  A
C2452      C4179   1.459       .  S
C2453      C4120   1.481       .  S
C2456      C4134   1.490       .  S
C2457      O2458   1.272       .  A
C2457      C4162   1.463       .  S
O2459      C2474   1.256       .  A
O2459     Al2467   1.875       .  S
C2460      O2470   1.264       .  A
C2460      O2461   1.269       .  A
C2460      C4064   1.463       .  S
O2461     Al2463   1.930       .  S
O2462      C2464   1.259       .  A
O2462     Al2463   1.898       .  S
Al2463     O2471   1.925       .  S
Al2463     O2473   1.917       .  S
Al2463     O2472   1.788       .  S
C2464      O2477   1.264       .  A
C2464      C4106   1.487       .  S
O2465      C2475   1.263       .  A
O2465     Al2467   1.936       .  S
O2466      C2479   1.267       .  A
O2466     Al2476   1.908       .  S
Al2467     O2480   1.918       .  S
Al2467     O2477   1.915       .  S
Al2467     O2472   1.776       .  S
O2468      C2475   1.260       .  A
O2468     Al2476   1.903       .  S
O2469      C2478   1.258       .  A
O2469     Al2476   1.895       .  S
O2470     Al2476   1.877       .  S
O2471      C2478   1.259       .  A
O2472     Al2476   1.771       .  S
O2473      C2474   1.264       .  A
C2474      C4095   1.466       .  S
C2475      C4050   1.490       .  S
C2478      C4137   1.491       .  S
C2479      O2480   1.270       .  A
C2479      C4081   1.477       .  S
O2481      C2496   1.261       .  A
O2481     Al2489   1.869       .  S
C2482      O2492   1.263       .  A
C2482      O2483   1.266       .  A
C2482      C4305   1.477       .  S
O2483     Al2485   1.918       .  S
O2484      C2486   1.256       .  A
O2484     Al2485   1.904       .  S
Al2485     O2493   1.913       .  S
Al2485     O2495   1.918       .  S
Al2485     O2494   1.803       .  S
C2486      O2499   1.256       .  A
C2486      C4036   1.491       .  S
O2487      C2497   1.264       .  A
O2487     Al2489   1.924       .  S
O2488      C2501   1.263       .  A
O2488     Al2498   1.897       .  S
Al2489     O2502   1.920       .  S
Al2489     O2499   1.896       .  S
Al2489     O2494   1.789       .  S
O2490      C2497   1.258       .  A
O2490     Al2498   1.900       .  S
O2491      C2500   1.251       .  A
O2491     Al2498   1.881       .  S
O2492     Al2498   1.869       .  S
O2493      C2500   1.255       .  A
O2494     Al2498   1.782       .  S
O2495      C2496   1.265       .  A
C2496      C4008   1.461       .  S
C2497      C4557   1.487       .  S
C2500      C4025   1.478       .  S
C2501      O2502   1.262       .  A
C2501      C4291   1.478       .  S
O2503      C2518   1.257       .  A
O2503     Al2511   1.868       .  S
C2504      O2514   1.264       .  A
C2504      O2505   1.268       .  A
C2504      C4235   1.460       .  S
O2505     Al2507   1.929       .  S
O2506      C2508   1.259       .  A
O2506     Al2507   1.878       .  S
Al2507     O2515   1.917       .  S
Al2507     O2517   1.909       .  S
Al2507     O2516   1.780       .  S
C2508      O2521   1.264       .  A
C2508      C3994   1.493       .  S
O2509      C2519   1.263       .  A
O2509     Al2511   1.924       .  S
O2510      C2523   1.267       .  A
O2510     Al2520   1.905       .  S
Al2511     O2524   1.929       .  S
Al2511     O2521   1.935       .  S
Al2511     O2516   1.776       .  S
O2512      C2519   1.260       .  A
O2512     Al2520   1.913       .  S
O2513      C2522   1.260       .  A
O2513     Al2520   1.914       .  S
O2514     Al2520   1.885       .  S
O2515      C2522   1.257       .  A
O2516     Al2520   1.773       .  S
O2517      C2518   1.260       .  A
C2518      C4176   1.459       .  S
C2519      C4445   1.488       .  S
C2522      C4022   1.482       .  S
C2523      O2524   1.271       .  A
C2523      C4221   1.471       .  S
O2525      C2540   1.269       .  A
O2525     Al2533   1.917       .  S
C2526      O2536   1.269       .  A
C2526      O2527   1.265       .  A
C2526      C3966   1.476       .  S
Al2529     O2537   1.944       .  S
Al2529     O2539   1.890       .  S
Al2529     O2538   1.795       .  S
C2530      O2543   1.263       .  A
O2531      C2541   1.268       .  A
O2531     Al2533   1.950       .  S
O2532      C2545   1.256       .  A
O2532     Al2542   1.902       .  S
Al2533     O2546   1.883       .  S
Al2533     O2543   1.921       .  S
Al2533     O2538   1.790       .  S
O2534      C2541   1.254       .  A
O2534     Al2542   1.862       .  S
O2535      C2544   1.254       .  A
O2535     Al2542   1.880       .  S
O2537      C2544   1.261       .  A
O2538     Al2542   1.782       .  S
O2539      C2540   1.263       .  A
C2540      C4011   1.456       .  S
C2541      C3941   1.489       .  S
C2544      C3952   1.493       .  S
C2545      O2546   1.255       .  A
C2545      C3983   1.460       .  S
O2547      C2562   1.260       .  A
O2547     Al2555   1.889       .  S
C2548      O2558   1.264       .  A
C2548      O2549   1.268       .  A
C2548      C3913   1.463       .  S
O2549     Al2551   1.925       .  S
O2550      C2552   1.261       .  A
O2550     Al2551   1.892       .  S
Al2551     O2559   1.925       .  S
Al2551     O2561   1.911       .  S
Al2551     O2560   1.782       .  S
C2552      O2565   1.260       .  A
C2552      C3899   1.493       .  S
O2553      C2563   1.264       .  A
O2553     Al2555   1.933       .  S
O2554     Al2564   1.917       .  S
Al2555     O2565   1.917       .  S
Al2555     O2560   1.781       .  S
O2556      C2563   1.262       .  A
O2556     Al2564   1.911       .  S
O2557      C2566   1.256       .  A
O2557     Al2564   1.901       .  S
O2558     Al2564   1.889       .  S
O2559      C2566   1.260       .  A
O2560     Al2564   1.781       .  S
O2561      C2562   1.262       .  A
C2563      C3882   1.487       .  S
C2566      C3955   1.487       .  S
C2567      O2568   1.265   1_556  A
C2567      C3924   1.483       .  S
O2569      C2584   1.272       .  A
O2569     Al2577   1.929       .  S
C2570      O2580   1.272       .  A
C2570      O2571   1.264       .  A
C2570      C3927   1.467       .  S
O2571     Al2573   1.886       .  S
O2572      C2574   1.258       .  A
O2572     Al2573   1.913       .  S
Al2573     O2581   1.900       .  S
Al2573     O2583   1.897       .  S
Al2573     O2582   1.781       .  S
C2574      O2587   1.263       .  A
C2574      C4109   1.480       .  S
O2575      C2585   1.264       .  A
O2575     Al2577   1.928       .  S
O2576      C2589   1.263       .  A
O2576     Al2586   1.922       .  S
Al2577     O2590   1.896       .  S
Al2577     O2587   1.933       .  S
Al2577     O2582   1.777       .  S
O2578      C2585   1.256       .  A
O2578     Al2586   1.879       .  S
O2579      C2588   1.259       .  A
O2579     Al2586   1.925       .  S
O2580     Al2586   1.939       .  S
O2581      C2588   1.257       .  A
O2582     Al2586   1.780       .  S
O2583      C2584   1.265       .  A
C2584      C3910   1.476       .  S
C2585      C3854   1.492       .  S
C2588      C3840   1.491       .  S
C2589      O2590   1.260       .  A
C2589      C3868   1.477       .  S
O2591      C2606   1.261       .  A
O2591     Al2599   1.876       .  S
C2592      O2602   1.258       .  A
C2592      O2593   1.262       .  A
C2592      C3980   1.480       .  S
O2593     Al2595   1.913       .  S
O2594      C2596   1.255       .  A
O2594     Al2595   1.886       .  S
Al2595     O2603   1.882       .  S
Al2595     O2605   1.925       .  S
Al2595     O2604   1.785       .  S
C2596      O2609   1.263       .  A
C2596      C4039   1.472       .  S
O2597      C2607   1.265       .  A
O2597     Al2599   1.912       .  S
O2598      C2611   1.260       .  A
O2598     Al2608   1.905       .  S
Al2599     O2612   1.912       .  S
Al2599     O2609   1.938       .  S
Al2599     O2604   1.786       .  S
O2600      C2607   1.269       .  A
O2600     Al2608   1.920       .  S
O2601      C2610   1.266       .  A
O2601     Al2608   1.938       .  S
O2602     Al2608   1.873       .  S
O2603      C2610   1.256       .  A
O2604     Al2608   1.780       .  S
O2605      C2606   1.264       .  A
C2606      C3969   1.472       .  S
C2607      C3826   1.484       .  S
C2610      C3843   1.495       .  S
C2611      O2612   1.262       .  A
C2611      C3812   1.465       .  S
O2613      C2628   1.260       .  A
O2613     Al2621   1.886       .  S
C2614      O2624   1.264       .  A
C2614      O2615   1.265       .  A
C2614      C3756   1.483       .  S
O2615     Al2617   1.902       .  S
O2616      C2618   1.258       .  A
O2616     Al2617   1.881       .  S
Al2617     O2625   1.881       .  S
Al2617     O2627   1.930       .  S
Al2617     O2626   1.778       .  S
C2618      O2631   1.262       .  A
C2618      C3728   1.485       .  S
O2619      C2629   1.265       .  A
O2619     Al2621   1.908       .  S
O2620      C2633   1.265       .  A
O2620     Al2630   1.926       .  S
Al2621     O2634   1.897       .  S
Al2621     O2631   1.937       .  S
Al2621     O2626   1.785       .  S
O2622      C2629   1.266       .  A
O2622     Al2630   1.913       .  S
O2623      C2632   1.264       .  A
O2623     Al2630   1.925       .  S
O2624     Al2630   1.913       .  S
O2625      C2632   1.257       .  A
O2626     Al2630   1.791       .  S
O2627      C2628   1.262       .  A
C2628      C3773   1.473       .  S
C2629      C3798   1.478       .  S
C2632      C3784   1.482       .  S
C2633      O2634   1.262       .  A
C2633      C3742   1.475       .  S
O2635      C2650   1.260       .  A
O2635     Al2643   1.892       .  S
C2636      O2646   1.264       .  A
C2636      O2637   1.266       .  A
C2636      C3700   1.487       .  S
O2637     Al2639   1.932       .  S
O2638      C2640   1.254       .  A
O2638     Al2639   1.890       .  S
Al2639     O2647   1.879       .  S
Al2639     O2649   1.931       .  S
Al2639     O2648   1.790       .  S
C2640      O2653   1.258       .  A
C2640      C3686   1.471       .  S
O2641      C2651   1.266       .  A
O2641     Al2643   1.923       .  S
O2642      C2655   1.266       .  A
O2642     Al2652   1.925       .  S
Al2643     O2656   1.904       .  S
Al2643     O2653   1.915       .  S
Al2643     O2648   1.795       .  S
O2644      C2651   1.261       .  A
O2644     Al2652   1.902       .  S
O2645      C2654   1.258       .  A
O2645     Al2652   1.915       .  S
O2646     Al2652   1.899       .  S
O2647      C2654   1.254       .  A
O2648     Al2652   1.791       .  S
O2649      C2650   1.266       .  A
C2650      C3714   1.476       .  S
C2651      C3885   1.487       .  S
C2654      C3787   1.483       .  S
C2655      O2656   1.261       .  A
C2655      C3871   1.473       .  S
O2657      C2672   1.262       .  A
C2658      O2668   1.260       .  A
C2658      O2659   1.267       .  A
C2658      C3658   1.477       .  S
O2659     Al2661   1.931       .  S
O2660      C2662   1.253       .  A
O2660     Al2661   1.880       .  S
Al2661     O2669   1.873       .  S
Al2661     O2671   1.921       .  S
Al2661     O2670   1.788       .  S
C2662      O2675   1.259       .  A
C2662      C3616   1.473       .  S
O2663      C2673   1.268       .  A
O2663     Al2665   1.919       .  S
O2664      C2677   1.264       .  A
O2664     Al2674   1.922       .  S
Al2665     O2678   1.906       .  S
Al2665     O2675   1.924       .  S
Al2665     O2670   1.784       .  S
O2666      C2673   1.265       .  A
O2666     Al2674   1.912       .  S
O2667      C2676   1.258       .  A
O2667     Al2674   1.912       .  S
O2668     Al2674   1.870       .  S
O2669      C2676   1.251       .  A
O2670     Al2674   1.785       .  S
C2672      C3672   1.474       .  S
C2673      C3644   1.484       .  S
C2676      C3630   1.475       .  S
C2677      O2678   1.262       .  A
O2679      C2694   1.267       .  A
O2679     Al2687   1.902       .  S
C2680      O2690   1.268       .  A
C2680      O2681   1.265       .  A
C2680      C3588   1.453       .  S
O2682      C2684   1.261       .  A
O2682     Al2683   1.913       .  S
Al2683     O2691   1.903       .  S
Al2683     O2693   1.905       .  S
Al2683     O2692   1.786       .  S
C2684      O2697   1.264       .  A
C2684      C3574   1.479       .  S
O2685      C2695   1.261       .  A
O2685     Al2687   1.919       .  S
O2686      C2699   1.261       .  A
O2686     Al2696   1.915       .  S
Al2687     O2700   1.885       .  S
Al2687     O2697   1.924       .  S
Al2687     O2692   1.774       .  S
O2688      C2695   1.260   1_554  A
O2688     Al2696   1.892   1_554  S
O2689      C2698   1.256       .  A
O2689     Al2696   1.901       .  S
O2691      C2698   1.257       .  A
O2692     Al2696   1.782       .  S
O2693      C2694   1.265       .  A
C2694      C3605   1.479       .  S
C2698      C3633   1.471       .  S
C2699      O2700   1.261       .  A
C2699      C3815   1.476       .  S
O2701      C2716   1.261       .  A
O2701     Al2709   1.886       .  S
C2702      O2712   1.265       .  A
C2702      O2703   1.267       .  A
C2702      C3602   1.457       .  S
O2703     Al2705   1.923       .  S
O2704      C2706   1.259       .  A
O2704     Al2705   1.907       .  S
Al2705     O2713   1.930       .  S
Al2705     O2715   1.914       .  S
Al2705     O2714   1.792       .  S
C2706      O2719   1.258       .  A
C2706      C3560   1.485       .  S
O2707      C2717   1.263       .  A
O2707     Al2709   1.931       .  S
O2708      C2721   1.268       .  A
O2708     Al2718   1.912       .  S
Al2709     O2722   1.903       .  S
Al2709     O2719   1.890       .  S
Al2709     O2714   1.778       .  S
O2710      C2717   1.261       .  A
O2710     Al2718   1.915       .  S
O2711      C2720   1.257       .  A
O2711     Al2718   1.892       .  S
O2712     Al2718   1.880       .  S
O2713      C2720   1.260       .  A
O2714     Al2718   1.776       .  S
O2715      C2716   1.263       .  A
C2716      C3532   1.470       .  S
C2717      C3829   1.487       .  S
C2720      C3546   1.497       .  S
C2721      O2722   1.263       .  A
C2721      C3591   1.482       .  S
O2723      C2738   1.261       .  A
O2723     Al2731   1.877       .  S
C2724      O2734   1.260       .  A
C2724      O2725   1.271       .  A
C2724      C3675   1.485       .  S
O2725     Al2727   1.949       .  S
O2726      C2728   1.259       .  A
O2726     Al2727   1.894       .  S
Al2727     O2735   1.925       .  S
Al2727     O2737   1.933       .  S
Al2727     O2736   1.786       .  S
C2728      O2741   1.258       .  A
C2728      C4372   1.491       .  S
O2729      C2739   1.263       .  A
O2729     Al2731   1.925       .  S
O2730      C2743   1.260       .  A
O2730     Al2740   1.894       .  S
Al2731     O2744   1.931       .  S
Al2731     O2741   1.911       .  S
Al2731     O2736   1.784       .  S
O2732      C2739   1.263       .  A
O2732     Al2740   1.906       .  S
O2733      C2742   1.254       .  A
O2733     Al2740   1.888       .  S
O2734     Al2740   1.853       .  S
O2735      C2742   1.260       .  A
O2736     Al2740   1.773       .  S
O2737      C2738   1.269       .  A
C2738      C3521   1.470       .  S
C2739      C3801   1.475       .  S
C2742      C3549   1.488       .  S
C2743      O2744   1.266       .  A
C2743      C3661   1.469       .  S
O2745      C2760   1.264       .  A
O2745     Al2753   1.887       .  S
C2746      O2756   1.262       .  A
C2746      O2747   1.263       .  A
C2746      C4400   1.478       .  S
O2747     Al2749   1.911       .  S
O2748      C2750   1.256       .  A
O2748     Al2749   1.884       .  S
Al2749     O2757   1.908       .  S
Al2749     O2759   1.913       .  S
Al2749     O2758   1.788       .  S
C2750      O2763   1.257       .  A
C2750      C3619   1.488       .  S
O2751      C2761   1.270       .  A
O2751     Al2753   1.940       .  S
O2752      C2765   1.263       .  A
O2752     Al2762   1.907       .  S
Al2753     O2766   1.910       .  S
Al2753     O2763   1.920       .  S
Al2753     O2758   1.791       .  S
O2754      C2761   1.261       .  A
O2754     Al2762   1.901       .  S
O2755      C2764   1.254       .  A
O2755     Al2762   1.889       .  S
O2756     Al2762   1.867       .  S
O2757      C2764   1.256       .  A
O2758     Al2762   1.773       .  S
O2759      C2760   1.265       .  A
C2760      C3518   1.465       .  S
C2761      C4207   1.494       .  S
C2764      C3507   1.470       .  S
C2765      O2766   1.261       .  A
C2765      C4389   1.475       .  S
O2767      C2782   1.259       .  A
O2767     Al2775   1.874       .  S
C2768      O2778   1.262       .  A
C2768      O2769   1.269       .  A
C2768      C4361   1.464       .  S
O2769     Al2771   1.934       .  S
O2770      C2772   1.258       .  A
O2770     Al2771   1.886       .  S
Al2771     O2779   1.911       .  S
Al2771     O2781   1.918       .  S
Al2771     O2780   1.776       .  S
C2772      O2785   1.260       .  A
C2772      C3490   1.491       .  S
O2773      C2783   1.265       .  A
O2773     Al2775   1.921       .  S
O2774      C2787   1.268       .  A
O2774     Al2784   1.920       .  S
Al2775     O2788   1.921       .  S
Al2775     O2785   1.926       .  S
Al2775     O2780   1.782       .  S
O2776      C2783   1.261       .  A
O2776     Al2784   1.901       .  S
O2777      C2786   1.256       .  A
O2777     Al2784   1.905       .  S
O2778     Al2784   1.881       .  S
O2779      C2786   1.256       .  A
O2780     Al2784   1.776       .  S
O2781      C2782   1.267       .  A
C2782      C3476   1.465       .  S
C2783      C4515   1.488       .  S
C2786      C3504   1.475       .  S
C2787      O2788   1.267       .  A
C2787      C4344   1.477       .  S
C2790      O2800   1.263       .  A
C2790      O2791   1.268       .  A
C2790      C3448   1.462       .  S
O2791     Al2793   1.922       .  S
O2792      C2794   1.259       .  A
O2792     Al2793   1.892       .  S
Al2793     O2801   1.939       .  S
Al2793     O2803   1.902       .  S
Al2793     O2802   1.788       .  S
C2794      O2807   1.258       .  A
C2794      C4319   1.493       .  S
O2795      C2805   1.263       .  A
O2795     Al2797   1.928       .  S
O2796     Al2806   1.908       .  S
Al2797     O2807   1.913       .  S
Al2797     O2802   1.789       .  S
O2798      C2805   1.261       .  A
O2798     Al2806   1.897       .  S
O2799      C2808   1.256       .  A
O2799     Al2806   1.893       .  S
O2800     Al2806   1.883       .  S
O2801      C2808   1.259       .  A
O2802     Al2806   1.778       .  S
O2803      C2804   1.262       .  A
C2805      C3420   1.480       .  S
C2808      C3434   1.498       .  S
C2809      O2810   1.266   1_556  A
C2809      C3465   1.470       .  S
O2811      C2826   1.264       .  A
O2811     Al2819   1.887       .  S
C2812      O2822   1.258       .  A
C2812      O2813   1.269       .  A
C2812      C3392   1.484       .  S
Al2815     O2823   1.934       .  S
Al2815     O2825   1.925       .  S
Al2815     O2824   1.786       .  S
C2816      O2829   1.257       .  A
O2817      C2827   1.265       .  A
O2817     Al2819   1.928       .  S
O2818      C2831   1.259       .  A
O2818     Al2828   1.888       .  S
Al2819     O2832   1.918       .  S
Al2819     O2829   1.906       .  S
Al2819     O2824   1.788       .  S
O2820      C2827   1.262       .  A
O2820     Al2828   1.899       .  S
O2821      C2830   1.256       .  A
O2821     Al2828   1.895       .  S
O2823      C2830   1.262       .  A
O2824     Al2828   1.779       .  S
O2825      C2826   1.265       .  A
C2826      C3535   1.472       .  S
C2827      C3381   1.483       .  S
C2830      C3437   1.491       .  S
C2831      O2832   1.262       .  A
C2831      C3406   1.458       .  S
O2833      C2848   1.259       .  A
O2833     Al2841   1.882       .  S
C2834      O2844   1.266       .  A
C2834      O2835   1.267       .  A
C2834      C3336   1.466       .  S
O2835     Al2837   1.925       .  S
O2836      C2838   1.262       .  A
O2836     Al2837   1.907       .  S
Al2837     O2845   1.921       .  S
Al2837     O2847   1.908       .  S
Al2837     O2846   1.786       .  S
C2838      O2851   1.257       .  A
C2838      C4526   1.490       .  S
O2839      C2849   1.264       .  A
O2839     Al2841   1.930       .  S
O2840      C2853   1.268       .  A
O2840     Al2850   1.922       .  S
Al2841     O2854   1.895       .  S
Al2841     O2851   1.905       .  S
Al2841     O2846   1.782       .  S
O2842      C2849   1.259       .  A
O2842     Al2850   1.903       .  S
O2843      C2852   1.254       .  A
O2843     Al2850   1.892       .  S
O2844     Al2850   1.883       .  S
O2845      C2852   1.259       .  A
O2846     Al2850   1.780       .  S
O2847      C2848   1.263       .  A
C2848      C3364   1.466       .  S
C2849      C3308   1.484       .  S
C2852      C3325   1.491       .  S
C2853      O2854   1.265       .  A
C2853      C3353   1.476       .  S
O2855      C2870   1.256       .  A
O2855     Al2863   1.858       .  S
C2856      O2866   1.267       .  A
C2856      O2857   1.274       .  A
C2856      C3280   1.482       .  S
O2857     Al2859   1.945       .  S
O2858      C2860   1.255       .  A
O2858     Al2859   1.896       .  S
Al2859     O2867   1.920       .  S
Al2859     O2869   1.937       .  S
Al2859     O2868   1.788       .  S
C2860      O2873   1.255       .  A
C2860      C3731   1.471       .  S
O2861      C2871   1.263       .  A
O2861     Al2863   1.923       .  S
O2862      C2875   1.264       .  A
O2862     Al2872   1.914       .  S
Al2863     O2876   1.918       .  S
Al2863     O2873   1.900       .  S
Al2863     O2868   1.788       .  S
O2864      C2871   1.261       .  A
O2864     Al2872   1.910       .  S
O2865      C2874   1.251       .  A
O2865     Al2872   1.881       .  S
O2866     Al2872   1.880       .  S
O2867      C2874   1.255       .  A
O2868     Al2872   1.778       .  S
O2869      C2870   1.271       .  A
C2870      C3269   1.488       .  S
C2871      C3252   1.485       .  S
C2874      C3322   1.480       .  S
C2875      O2876   1.264       .  A
C2875      C3294   1.472       .  S
O2877      C2892   1.261       .  A
O2877     Al2885   1.895       .  S
C2878      O2888   1.262       .  A
C2878      O2879   1.265       .  A
C2878      C4599   1.469       .  S
Al2881     O2889   1.915       .  S
Al2881     O2891   1.911       .  S
Al2881     O2890   1.780       .  S
C2882      O2895   1.261       .  A
C2882      C3241   1.494   1_455  S
O2883      C2893   1.266       .  A
O2883     Al2885   1.932       .  S
O2884      C2897   1.264       .  A
O2884     Al2894   1.911       .  S
Al2885     O2898   1.911       .  S
Al2885     O2895   1.925       .  S
Al2885     O2890   1.784       .  S
O2886      C2893   1.263       .  A
O2886     Al2894   1.908       .  S
O2887      C2896   1.256       .  A
O2887     Al2894   1.906       .  S
O2889      C2896   1.258       .  A
O2890     Al2894   1.783       .  S
O2891      C2892   1.264       .  A
C2892      C3367   1.469       .  S
C2893      C4274   1.484       .  S
C2896      C3224   1.481       .  S
C2897      O2898   1.265       .  A
C2897      C4585   1.471       .  S
O2899      C2914   1.261       .  A
O2899     Al2907   1.878       .  S
C2900      O2910   1.261       .  A
C2900      O2901   1.268       .  A
C2900      C4487   1.458       .  S
O2901     Al2903   1.928       .  S
O2902      C2904   1.259       .  A
O2902     Al2903   1.906       .  S
Al2903     O2911   1.910       .  S
Al2903     O2913   1.920       .  S
Al2903     O2912   1.789       .  S
C2904      O2917   1.259       .  A
C2904      C3689   1.488       .  S
O2905      C2915   1.265       .  A
O2905     Al2907   1.929       .  S
O2906     Al2916   1.892       .  S
Al2907     O2917   1.904       .  S
Al2907     O2912   1.781       .  S
O2908      C2915   1.264       .  A
O2908     Al2916   1.915       .  S
O2909      C2918   1.255       .  A
O2909     Al2916   1.901       .  S
O2910     Al2916   1.857       .  S
O2911      C2918   1.256       .  A
O2912     Al2916   1.776       .  S
O2913      C2914   1.266       .  A
C2915      C4333   1.487       .  S
C2918      C3227   1.474       .  S
C2919      O2920   1.262   1_556  A
C2919      C4473   1.468       .  S
O2921      C2936   1.259       .  A
O2921     Al2929   1.890       .  S
C2922      O2932   1.262       .  A
C2922      O2923   1.268       .  A
C2922      C3770   1.486       .  S
O2923     Al2925   1.933       .  S
O2924      C2926   1.261       .  A
O2924     Al2925   1.905       .  S
Al2925     O2933   1.912       .  S
Al2925     O2935   1.939       .  S
Al2925     O2934   1.793       .  S
C2926      O2939   1.260       .  A
C2926      C3196   1.489       .  S
O2927      C2937   1.262       .  A
O2927     Al2929   1.921       .  S
O2928      C2941   1.260       .  A
O2928     Al2938   1.899       .  S
Al2929     O2942   1.908       .  S
Al2929     O2939   1.901       .  S
Al2929     O2934   1.783       .  S
O2930      C2937   1.262       .  A
O2930     Al2938   1.905       .  S
O2931      C2940   1.259       .  A
O2931     Al2938   1.901       .  S
O2932     Al2938   1.892       .  S
O2933      C2940   1.260       .  A
O2934     Al2938   1.785       .  S
O2935      C2936   1.265       .  A
C2936      C3266   1.473       .  S
C2937      C3647   1.481       .  S
C2940      C3182   1.476       .  S
C2941      O2942   1.260       .  A
C2941      C3759   1.464       .  S
O2943      C2958   1.264       .  A
O2943     Al2951   1.898       .  S
C2944      O2954   1.262       .  A
C2944      O2945   1.268       .  A
C2944      C3717   1.477       .  S
O2945     Al2947   1.930       .  S
O2946      C2948   1.258       .  A
O2946     Al2947   1.890       .  S
Al2947     O2955   1.922       .  S
Al2947     O2957   1.920       .  S
Al2947     O2956   1.785       .  S
C2948      O2961   1.258       .  A
C2948      C4459   1.490       .  S
O2949      C2959   1.266       .  A
O2949     Al2951   1.932       .  S
O2950      C2963   1.265       .  A
O2950     Al2960   1.916       .  S
Al2951     O2964   1.913       .  S
Al2951     O2961   1.915       .  S
Al2951     O2956   1.789       .  S
O2952      C2959   1.262       .  A
O2952     Al2960   1.892       .  S
O2953      C2962   1.256       .  A
O2953     Al2960   1.888       .  S
O2954     Al2960   1.894       .  S
O2955      C2962   1.258       .  A
O2956     Al2960   1.781       .  S
O2957      C2958   1.265       .  A
C2958      C3213   1.474       .  S
C2959      C3857   1.484       .  S
C2962      C3185   1.481       .  S
C2963      O2964   1.263       .  A
C2963      C3703   1.478       .  S
O2965      C2980   1.262       .  A
O2965     Al2973   1.878       .  S
C2966      O2976   1.260       .  A
C2966      O2967   1.263       .  A
C2966      C3409   1.477       .  S
O2967     Al2969   1.915       .  S
O2968      C2970   1.255       .  A
O2968     Al2969   1.888       .  S
Al2969     O2977   1.879       .  S
Al2969     O2979   1.926       .  S
Al2969     O2978   1.782       .  S
C2970      O2983   1.259       .  A
C2970      C3563   1.465       .  S
O2971      C2981   1.265       .  A
O2971     Al2973   1.916       .  S
O2972      C2985   1.261       .  A
O2972     Al2982   1.907       .  S
Al2973     O2986   1.908       .  S
Al2973     O2983   1.919       .  S
Al2973     O2978   1.786       .  S
O2974      C2981   1.269       .  A
O2974     Al2982   1.919       .  S
O2975      C2984   1.262       .  A
O2975     Al2982   1.935       .  S
O2976     Al2982   1.871       .  S
O2977      C2984   1.257       .  A
O2978     Al2982   1.782       .  S
O2979      C2980   1.264       .  A
C2980      C3395   1.479       .  S
C2981      C3311   1.488   1_565  S
C2984      C3168   1.485       .  S
C2985      O2986   1.262       .  A
C2985      C3154   1.466       .  S
O2987      C3002   1.273       .  A
O2987     Al2995   1.929       .  S
C2988      O2998   1.276       .  A
C2988      O2989   1.269       .  A
C2988      C3462   1.468       .  S
O2989     Al2991   1.885       .  S
O2990      C2992   1.257       .  A
O2990     Al2991   1.916       .  S
Al2991     O2999   1.886       .  S
Al2991     O3001   1.891       .  S
Al2991     O3000   1.789       .  S
C2992      O3005   1.257       .  A
C2992      C3493   1.478       .  S
O2993      C3003   1.261       .  A
O2993     Al2995   1.915       .  S
O2994      C3007   1.268       .  A
O2994     Al3004   1.942       .  S
Al2995     O3008   1.874       .  S
Al2995     O3005   1.916       .  S
Al2995     O3000   1.781       .  S
O2996      C3003   1.256       .  A
O2996     Al3004   1.889       .  S
O2997      C3006   1.257       .  A
O2997     Al3004   1.919       .  S
O2998     Al3004   1.942       .  S
O2999      C3006   1.250       .  A
O3000     Al3004   1.781       .  S
O3001      C3002   1.265       .  A
C3002      C3451   1.471       .  S
C3003      C4053   1.495       .  S
C3006      C3171   1.489       .  S
C3007      O3008   1.256       .  A
C3007      C3140   1.488       .  S
O3009      C3024   1.269       .  A
O3009     Al3017   1.931       .  S
C3010      O3020   1.264       .  A
C3010      O3011   1.263       .  A
C3010      C4165   1.462       .  S
O3011     Al3013   1.892       .  S
O3012      C3014   1.260       .  A
O3012     Al3013   1.913       .  S
Al3013     O3021   1.909       .  S
Al3013     O3023   1.892       .  S
Al3013     O3022   1.783       .  S
C3014      O3027   1.263       .  A
C3014      C3997   1.482       .  S
O3015      C3025   1.265       .  A
O3015     Al3017   1.944       .  S
O3016      C3029   1.259       .  A
O3016     Al3026   1.909       .  S
Al3017     O3030   1.905       .  S
Al3017     O3027   1.922       .  S
Al3017     O3022   1.780       .  S
O3018      C3025   1.259       .  A
O3018     Al3026   1.873       .  S
O3019      C3028   1.260       .  A
O3019     Al3026   1.909       .  S
O3020     Al3026   1.914       .  S
O3021      C3028   1.260       .  A
O3022     Al3026   1.774       .  S
O3023      C3024   1.261       .  A
C3024      C4148   1.464       .  S
C3025      C3255   1.491       .  S
C3028      C3126   1.474       .  S
C3029      O3030   1.262       .  A
C3029      C3112   1.469       .  S
O3031      C3046   1.259       .  A
O3031     Al3039   1.862       .  S
C3032      O3042   1.266       .  A
C3032      O3033   1.271       .  A
C3032      C4078   1.474       .  S
O3033     Al3035   1.938       .  S
O3034      C3036   1.253       .  A
O3034     Al3035   1.879       .  S
Al3035     O3043   1.874       .  S
Al3035     O3045   1.914       .  S
Al3035     O3044   1.788       .  S
C3036      O3049   1.256       .  A
C3036      C3896   1.472       .  S
O3037      C3047   1.261       .  A
O3037     Al3039   1.916       .  S
O3038      C3051   1.272       .  A
O3038     Al3048   1.935       .  S
Al3039     O3052   1.915       .  S
Al3039     O3049   1.911       .  S
Al3039     O3044   1.786       .  S
O3040      C3047   1.256       .  A
O3040     Al3048   1.894       .  S
O3041      C3050   1.253       .  A
O3041     Al3048   1.915       .  S
O3042     Al3048   1.888       .  S
O3043      C3050   1.249       .  A
O3044     Al3048   1.792       .  S
O3045      C3046   1.263       .  A
C3046      C4067   1.480       .  S
C3047      C3423   1.478       .  S
C3050      C3129   1.479       .  S
C3051      O3052   1.267       .  A
C3051      C3143   1.478       .  S
O3053      C3068   1.270       .  A
O3053     Al3061   1.918       .  S
C3054      O3064   1.271       .  A
C3054      O3055   1.265       .  A
C3054      C3350   1.462       .  S
O3056      C3058   1.253       .  A
O3056     Al3057   1.886       .  S
Al3057     O3065   1.881       .  S
Al3057     O3067   1.908       .  S
Al3057     O3066   1.790       .  S
C3058      O3071   1.258       .  A
C3058      C3238   1.469       .  S
O3059      C3069   1.257       .  A
O3059     Al3061   1.897       .  S
O3060      C3073   1.263       .  A
O3060     Al3070   1.918       .  S
Al3061     O3074   1.868       .  S
Al3061     O3071   1.920       .  S
Al3061     O3066   1.782       .  S
O3062      C3069   1.255       .  A
O3062     Al3070   1.891       .  S
O3063      C3072   1.254       .  A
O3063     Al3070   1.906       .  S
O3065      C3072   1.248       .  A
O3066     Al3070   1.790       .  S
O3067      C3068   1.269       .  A
C3068      C3339   1.483       .  S
C3072      C3098   1.483       .  S
C3073      O3074   1.259       .  A
C3073      C3157   1.475       .  S
O3075      C3090   1.258       .  A
C3076      O3086   1.261       .  A
C3076      O3077   1.267       .  A
C3076      C3297   1.484       .  S
O3077     Al3079   1.926       .  S
O3078      C3080   1.255       .  A
O3078     Al3079   1.891       .  S
Al3079     O3087   1.878       .  S
Al3079     O3089   1.938       .  S
Al3079     O3088   1.778       .  S
C3080      O3093   1.258       .  A
C3080      C3199   1.468       .  S
O3081      C3091   1.264       .  A
O3081     Al3083   1.922       .  S
O3082      C3095   1.265       .  A
O3082     Al3092   1.922       .  S
Al3083     O3096   1.900       .  S
Al3083     O3093   1.919       .  S
Al3083     O3088   1.787       .  S
O3084      C3091   1.264       .  A
O3084     Al3092   1.891       .  S
O3085      C3094   1.259       .  A
O3085     Al3092   1.921       .  S
O3086     Al3092   1.887       .  S
O3087      C3094   1.256       .  A
O3088     Al3092   1.788       .  S
C3090      C3283   1.476       .  S
C3091      C4123   1.475       .  S
C3094      C3101   1.487       .  S
C3095      O3096   1.263       .  A
C3097      C3098   1.404       .  A
C3097      C3102   1.404       .  A
C3097      H3104   1.082       .  S
C3098      C3099   1.415       .  A
C3099      C3100   1.394       .  A
C3099      N3106   1.430       .  S
C3100      C3101   1.404       .  A
C3100      H3105   1.082       .  S
C3101      C3102   1.416       .  A
C3102      N3103   1.428       .  S
N3103      O3107   1.262       .  A
N3103      O3108   1.262       .  A
N3106      O3110   1.262   1_556  A
N3106      O3109   1.262       .  A
C3111      C3112   1.403       .  A
C3111      C3116   1.406       .  A
C3111      H3118   1.073       .  S
C3112      C3113   1.404       .  A
C3113      C3114   1.389       .  A
C3113      N3120   1.425       .  S
C3114      C3115   1.398       .  A
C3114      H3119   1.081       .  S
C3115      C3116   1.409       .  A
N3117      O3121   1.262       .  A
N3117      O3122   1.261       .  A
N3120      O3124   1.260       .  A
N3120      O3123   1.262       .  A
C3125      C3126   1.403       .  A
C3125      C3130   1.406   1_545  A
C3125      H3132   1.082       .  S
C3126      C3127   1.410       .  A
C3127      C3128   1.394   1_545  A
C3127      N3134   1.430       .  S
C3128      C3129   1.402       .  A
C3128      H3133   1.081       .  S
C3129      C3130   1.414       .  A
C3130      N3131   1.429       .  S
N3131      O3135   1.262       .  A
N3131      O3136   1.262       .  A
N3134      O3138   1.262       .  A
N3134      O3137   1.262       .  A
C3139      C3140   1.408       .  A
C3139      C3144   1.412       .  A
C3139      H3146   1.082       .  S
C3140      C3141   1.416       .  A
C3141      C3142   1.397       .  A
C3141      N3148   1.429       .  S
C3142      C3143   1.399       .  A
C3142      H3147   1.084       .  S
C3143      C3144   1.411       .  A
C3144      N3145   1.428       .  S
N3145      O3149   1.262       .  A
N3145      O3150   1.262       .  A
N3148      O3152   1.261       .  A
N3148      O3151   1.262       .  A
C3153      C3154   1.401       .  A
C3153      C3158   1.405   1_565  A
C3153      H3160   1.082       .  S
C3154      C3155   1.407   1_565  A
C3155      C3156   1.391       .  A
C3155      N3162   1.427       .  S
C3156      C3157   1.401       .  A
C3156      H3161   1.084       .  S
C3157      C3158   1.412       .  A
C3158      N3159   1.427   1_545  S
N3159      O3163   1.262   1_565  A
N3159      O3164   1.262       .  A
N3162      O3166   1.260       .  A
N3162      O3165   1.262       .  A
C3167      C3168   1.402       .  A
C3167      C3172   1.393       .  A
C3167      H3174   1.083       .  S
C3168      C3169   1.413       .  A
C3169      C3170   1.409       .  A
C3169      N3176   1.428       .  S
C3170      C3171   1.408       .  A
C3170      H3175   1.082       .  S
C3171      C3172   1.417       .  A
C3172      N3173   1.431       .  S
N3173      O3177   1.261       .  A
N3173      O3178   1.262       .  A
N3176      O3180   1.262       .  A
N3176      O3179   1.262       .  A
C3181      C3182   1.405       .  A
C3181      C3186   1.411   1_655  A
C3181      H3188   1.082       .  S
C3182      C3183   1.407       .  A
C3183      C3184   1.393   1_655  A
C3183      N3190   1.428       .  S
C3184      C3185   1.402       .  A
C3184      H3189   1.083       .  S
C3185      C3186   1.413       .  A
C3186      N3187   1.428       .  S
N3187      O3191   1.262       .  A
N3187      O3192   1.262       .  A
N3190      O3194   1.261       .  A
N3190      O3193   1.262       .  A
C3195      C3196   1.412       .  A
C3195      C3200   1.401       .  A
C3195      H3202   1.082       .  S
C3196      C3197   1.414       .  A
C3197      C3198   1.400       .  A
C3197      N3204   1.428       .  S
C3198      C3199   1.400       .  A
C3198      H3203   1.083       .  S
C3199      C3200   1.403       .  A
C3200      N3201   1.429       .  S
N3201      O3205   1.262       .  A
N3201      O3206   1.261       .  A
N3204      O3208   1.262       .  A
N3204      O3207   1.261       .  A
C3209      C3210   1.401       .  A
C3209      C3214   1.397       .  A
C3209      H3216   1.084       .  S
C3210      C3211   1.410       .  A
C3211      C3212   1.402       .  A
C3212      C3213   1.404       .  A
C3212      H3217   1.084       .  S
C3213      C3214   1.411       .  A
C3214      N3215   1.428       .  S
N3215      O3219   1.261       .  A
N3215      O3220   1.262       .  A
N3218      O3222   1.262       .  A
N3218      O3221   1.261       .  A
C3223      C3224   1.405       .  A
C3223      C3228   1.406       .  A
C3223      H3230   1.083       .  S
C3224      C3225   1.413       .  A
C3225      C3226   1.399       .  A
C3225      N3232   1.429       .  S
C3226      C3227   1.400       .  A
C3226      H3231   1.083       .  S
C3227      C3228   1.409       .  A
C3228      N3229   1.428       .  S
N3229      O3233   1.261       .  A
N3229      O3234   1.262       .  A
N3232      O3236   1.262       .  A
N3232      O3235   1.262       .  A
C3237      C3238   1.401   1_554  A
C3238      C3239   1.408       .  A
C3239      C3240   1.389       .  A
C3239      N3246   1.431       .  S
C3240      H3245   1.075       .  S
C3241      C3242   1.419       .  A
C3242      N3243   1.429       .  S
N3243      O3247   1.262       .  A
N3243      O3248   1.262       .  A
N3246      O3250   1.262       .  A
N3246      O3249   1.262       .  A
C3251      C3252   1.408       .  A
C3251      C3256   1.414       .  A
C3251      H3258   1.082       .  S
C3252      C3253   1.412       .  A
C3253      C3254   1.387       .  A
C3253      N3260   1.430       .  S
C3254      C3255   1.402       .  A
C3254      H3259   1.080       .  S
C3255      C3256   1.416       .  A
C3256      N3257   1.430       .  S
N3257      O3261   1.262       .  A
N3257      O3262   1.262       .  A
N3260      O3264   1.262       .  A
N3260      O3263   1.261       .  A
C3265      C3266   1.397       .  A
C3265      C3270   1.393       .  A
C3265      H3272   1.085       .  S
C3266      C3267   1.411       .  A
C3267      C3268   1.407       .  A
C3267      N3274   1.428       .  S
C3268      C3269   1.405       .  A
C3268      H3273   1.083       .  S
C3269      C3270   1.419       .  A
C3270      N3271   1.430       .  S
N3271      O3275   1.262       .  A
N3271      O3276   1.262       .  A
N3274      O3278   1.262       .  A
N3274      O3277   1.262       .  A
C3279      C3280   1.401       .  A
C3279      C3284   1.396       .  A
C3279      H3286   1.083       .  S
C3280      C3281   1.414       .  A
C3281      C3282   1.408       .  A
C3281      N3288   1.427       .  S
C3282      C3283   1.403       .  A
C3282      H3287   1.083       .  S
C3283      C3284   1.409       .  A
C3284      N3285   1.428       .  S
N3285      O3289   1.260       .  A
N3285      O3290   1.260       .  A
N3288      O3292   1.261       .  A
N3288      O3291   1.262       .  A
C3293      C3294   1.398       .  A
C3293      C3298   1.396       .  A
C3293      H3300   1.077       .  S
C3294      C3295   1.408       .  A
C3295      C3296   1.403       .  A
C3295      N3302   1.429       .  S
C3296      C3297   1.407       .  A
C3296      H3301   1.082       .  S
C3297      C3298   1.414       .  A
C3298      N3299   1.428       .  S
N3299      O3303   1.261       .  A
N3299      O3304   1.262       .  A
N3302      O3306   1.261       .  A
N3302      O3305   1.262       .  A
C3307      C3308   1.405       .  A
C3307      C3312   1.412       .  A
C3307      H3314   1.083       .  S
C3308      C3309   1.413       .  A
C3309      C3310   1.393       .  A
C3309      N3316   1.430       .  S
C3310      C3311   1.401       .  A
C3310      H3315   1.085   1_545  S
C3311      C3312   1.418       .  A
C3312      N3313   1.430       .  S
N3313      O3317   1.262   1_545  A
N3313      O3318   1.262       .  A
N3316      O3320   1.262       .  A
N3316      O3319   1.262       .  A
C3321      C3322   1.400       .  A
C3321      C3326   1.394       .  A
C3321      H3328   1.083       .  S
C3322      C3323   1.410       .  A
C3323      C3324   1.410       .  A
C3323      N3330   1.427       .  S
C3324      C3325   1.409       .  A
C3324      H3329   1.082       .  S
C3325      C3326   1.417       .  A
C3326      N3327   1.430       .  S
N3327      O3331   1.262       .  A
N3327      O3332   1.262       .  A
N3330      O3334   1.262       .  A
N3330      O3333   1.262       .  A
C3335      C3336   1.401       .  A
C3335      C3340   1.404       .  A
C3335      H3342   1.084       .  S
C3336      C3337   1.403       .  A
C3337      C3338   1.392       .  A
C3337      N3344   1.430       .  S
C3338      C3339   1.408       .  A
C3338      H3343   1.084       .  S
C3339      C3340   1.415       .  A
C3340      N3341   1.428       .  S
N3341      O3345   1.262       .  A
N3341      O3346   1.262       .  A
N3344      O3348   1.260       .  A
N3344      O3347   1.262       .  A
C3349      C3350   1.403       .  A
C3349      C3354   1.406       .  A
C3349      H3356   1.079       .  S
C3350      C3351   1.403       .  A
C3351      C3352   1.389       .  A
C3351      N3358   1.430       .  S
C3352      C3353   1.405       .  A
C3352      H3357   1.082       .  S
C3353      C3354   1.411       .  A
C3354      N3355   1.428       .  S
N3355      O3359   1.262       .  A
N3355      O3360   1.262       .  A
N3358      O3362   1.261       .  A
N3358      O3361   1.261       .  A
C3363      C3364   1.400       .  A
C3363      C3368   1.396   1_655  A
C3363      H3370   1.083   1_655  S
C3364      C3365   1.409       .  A
C3365      C3366   1.398       .  A
C3365      N3372   1.430       .  S
C3366      C3367   1.403   1_655  A
C3366      H3371   1.083       .  S
C3367      C3368   1.409       .  A
C3368      N3369   1.427       .  S
N3369      O3373   1.262       .  A
N3369      O3374   1.262       .  A
N3372      O3376   1.262       .  A
N3372      O3375   1.262       .  A
C3377      C3382   1.407   1_556  A
C3377      H3384   1.082   1_565  S
C3378      C3379   1.417   1_545  A
C3379      C3380   1.393       .  A
C3379      N3386   1.431   1_565  S
C3380      C3381   1.402       .  A
C3380      H3385   1.081       .  S
C3382      N3383   1.428   1_554  S
N3383      O3387   1.262       .  A
N3383      O3388   1.262   1_556  A
N3386      O3390   1.262       .  A
N3386      O3389   1.262   1_545  A
C3391      C3392   1.406       .  A
C3391      C3396   1.404       .  A
C3391      H3398   1.082       .  S
C3392      C3393   1.417       .  A
C3393      C3394   1.392       .  A
C3393      N3400   1.430       .  S
C3394      C3395   1.400       .  A
C3394      H3399   1.083       .  S
C3395      C3396   1.413       .  A
C3396      N3397   1.428       .  S
N3397      O3401   1.261       .  A
N3397      O3402   1.262       .  A
N3400      O3404   1.262       .  A
N3400      O3403   1.261       .  A
C3405      C3406   1.398       .  A
C3405      C3410   1.398       .  A
C3405      H3412   1.082       .  S
C3406      C3407   1.403       .  A
C3407      C3408   1.392       .  A
C3407      N3414   1.429       .  S
C3408      C3409   1.406       .  A
C3408      H3413   1.082       .  S
C3409      C3410   1.416       .  A
C3410      N3411   1.429       .  S
N3411      O3415   1.262       .  A
N3411      O3416   1.262       .  A
N3414      O3418   1.262       .  A
N3414      O3417   1.262       .  A
C3419      C3420   1.402       .  A
C3419      C3424   1.391       .  A
C3419      H3426   1.081       .  S
C3420      C3421   1.409       .  A
C3421      C3422   1.408       .  A
C3421      N3428   1.427       .  S
C3422      C3423   1.407       .  A
C3422      H3427   1.082       .  S
C3423      C3424   1.414       .  A
C3424      N3425   1.433       .  S
N3425      O3429   1.262       .  A
N3425      O3430   1.262       .  A
N3428      O3432   1.261       .  A
N3428      O3431   1.262       .  A
C3433      C3434   1.404       .  A
C3433      C3438   1.395       .  A
C3433      H3440   1.083       .  S
C3434      C3435   1.417       .  A
C3435      C3436   1.417       .  A
C3435      N3442   1.427       .  S
C3436      C3437   1.408       .  A
C3436      H3441   1.082       .  S
C3437      C3438   1.411       .  A
C3438      N3439   1.429       .  S
N3439      O3443   1.262       .  A
N3439      O3444   1.261       .  A
N3442      O3446   1.262       .  A
N3442      O3445   1.262       .  A
C3447      C3448   1.399       .  A
C3447      C3452   1.402       .  A
C3447      H3454   1.082       .  S
C3448      C3449   1.407       .  A
C3449      C3450   1.392       .  A
C3449      N3456   1.428       .  S
C3450      C3451   1.398       .  A
C3450      H3455   1.080       .  S
C3451      C3452   1.414       .  A
C3452      N3453   1.429       .  S
N3453      O3457   1.261       .  A
N3453      O3458   1.262       .  A
N3456      O3460   1.261       .  A
N3456      O3459   1.261       .  A
C3461      C3462   1.399       .  A
C3461      C3466   1.398       .  A
C3461      H3468   1.082       .  S
C3462      C3463   1.409       .  A
C3463      C3464   1.401       .  A
C3463      N3470   1.428       .  S
C3464      C3465   1.401       .  A
C3464      H3469   1.082       .  S
C3465      C3466   1.411       .  A
C3466      N3467   1.429       .  S
N3467      O3471   1.261       .  A
N3467      O3472   1.262       .  A
N3470      O3474   1.262       .  A
N3470      O3473   1.262       .  A
C3475      C3476   1.403       .  A
C3475      C3480   1.396       .  A
C3475      H3482   1.084       .  S
C3476      C3477   1.412       .  A
C3477      C3478   1.395       .  A
C3477      N3484   1.430       .  S
C3478      C3479   1.399       .  A
C3478      H3483   1.084   1_556  S
C3479      C3480   1.406       .  A
C3480      N3481   1.430       .  S
N3481      O3485   1.261       .  A
N3484      O3488   1.262       .  A
N3484      O3487   1.261       .  A
C3489      C3490   1.405       .  A
C3489      C3494   1.395       .  A
C3489      H3496   1.082       .  S
C3490      C3491   1.419       .  A
C3491      C3492   1.409       .  A
C3491      N3498   1.428       .  S
C3492      C3493   1.402       .  A
C3492      H3497   1.082       .  S
C3493      C3494   1.408       .  A
C3494      N3495   1.429       .  S
N3495      O3499   1.262       .  A
N3495      O3500   1.262       .  A
N3498      O3502   1.262       .  A
N3498      O3501   1.262       .  A
C3503      C3504   1.403       .  A
C3503      C3508   1.406       .  A
C3503      H3510   1.083       .  S
C3504      C3505   1.410       .  A
C3505      C3506   1.397       .  A
C3505      N3512   1.429       .  S
C3506      C3507   1.399       .  A
C3506      H3511   1.083       .  S
C3507      C3508   1.411       .  A
C3508      N3509   1.428       .  S
N3509      O3513   1.262       .  A
N3509      O3514   1.262       .  A
N3512      O3516   1.262       .  A
N3512      O3515   1.262       .  A
C3517      C3518   1.399       .  A
C3517      C3522   1.397       .  A
C3517      H3524   1.084       .  S
C3518      C3519   1.407       .  A
C3519      C3520   1.400       .  A
C3519      N3526   1.431       .  S
C3520      C3521   1.404       .  A
C3520      H3525   1.084       .  S
C3521      C3522   1.412       .  A
C3522      N3523   1.429       .  S
N3523      O3527   1.262       .  A
N3523      O3528   1.262       .  A
N3526      O3530   1.262       .  A
N3526      O3529   1.262       .  A
C3531      C3532   1.402       .  A
C3531      C3536   1.401       .  A
C3531      H3538   1.083       .  S
C3532      C3533   1.409       .  A
C3533      C3534   1.397       .  A
C3533      N3540   1.428       .  S
C3534      C3535   1.401       .  A
C3534      H3539   1.083       .  S
C3535      C3536   1.413       .  A
C3536      N3537   1.430       .  S
N3537      O3541   1.262       .  A
N3537      O3542   1.261       .  A
N3540      O3544   1.262       .  A
N3540      O3543   1.261       .  A
C3545      C3546   1.406       .  A
C3545      C3550   1.393       .  A
C3545      H3552   1.082       .  S
C3546      C3547   1.417       .  A
C3547      C3548   1.414       .  A
C3547      N3554   1.427       .  S
C3548      C3549   1.407       .  A
C3548      H3553   1.082       .  S
C3549      C3550   1.412       .  A
C3550      N3551   1.430       .  S
N3551      O3555   1.262       .  A
N3551      O3556   1.261       .  A
N3554      O3558   1.262       .  A
N3554      O3557   1.262       .  A
C3559      C3560   1.411       .  A
C3559      C3564   1.399       .  A
C3559      H3566   1.082       .  S
C3560      C3561   1.414       .  A
C3561      C3562   1.401       .  A
C3561      N3568   1.430       .  S
C3562      C3563   1.400       .  A
C3562      H3567   1.080       .  S
C3563      C3564   1.402       .  A
C3564      N3565   1.429       .  S
N3565      O3569   1.262       .  A
N3565      O3570   1.262       .  A
N3568      O3572   1.262       .  A
N3568      O3571   1.262       .  A
C3573      C3578   1.407       .  A
C3573      H3580   1.083       .  S
C3574      C3575   1.410       .  A
C3575      C3576   1.397       .  A
C3575      N3582   1.430       .  S
C3576      C3577   1.404       .  A
C3576      H3581   1.082       .  S
C3578      N3579   1.430       .  S
N3579      O3583   1.262       .  A
N3579      O3584   1.262       .  A
N3582      O3586   1.262       .  A
N3582      O3585   1.262       .  A
C3587      C3588   1.391       .  A
C3587      C3592   1.388       .  A
C3587      H3594   1.085       .  S
C3588      C3589   1.402       .  A
C3589      C3590   1.403       .  A
C3589      N3596   1.429       .  S
C3590      C3591   1.410       .  A
C3590      H3595   1.083       .  S
C3591      C3592   1.422       .  A
C3592      N3593   1.430       .  S
N3593      O3597   1.261       .  A
N3593      O3598   1.262       .  A
N3596      O3600   1.262       .  A
N3596      O3599   1.262       .  A
C3601      C3602   1.401       .  A
C3601      C3606   1.405       .  A
C3601      H3608   1.082       .  S
C3602      C3603   1.400       .  A
C3603      C3604   1.384       .  A
C3603      N3610   1.428       .  S
C3604      C3605   1.405       .  A
C3604      H3609   1.082       .  S
C3605      C3606   1.416       .  A
C3606      N3607   1.428       .  S
N3607      O3611   1.262       .  A
N3607      O3612   1.262       .  A
N3610      O3614   1.260       .  A
N3610      O3613   1.261       .  A
C3615      C3616   1.402       .  A
C3615      C3620   1.410       .  A
C3615      H3622   1.082       .  S
C3616      C3617   1.407       .  A
C3617      C3618   1.391       .  A
C3617      N3624   1.428       .  S
C3618      C3619   1.404       .  A
C3618      H3623   1.082       .  S
C3619      C3620   1.418       .  A
C3620      N3621   1.428       .  S
N3621      O3625   1.262       .  A
N3621      O3626   1.262       .  A
C3629      C3630   1.405       .  A
C3629      C3634   1.400       .  A
C3629      H3636   1.082       .  S
C3630      C3631   1.412       .  A
C3631      C3632   1.396       .  A
C3631      N3638   1.430   1_556  S
C3632      C3633   1.402       .  A
C3632      H3637   1.082   1_556  S
C3633      C3634   1.408       .  A
C3634      N3635   1.429       .  S
N3635      O3640   1.262       .  A
N3638      O3642   1.262       .  A
N3638      O3641   1.262       .  A
C3643      C3644   1.408       .  A
C3643      C3648   1.410       .  A
C3643      H3650   1.082       .  S
C3644      C3645   1.413       .  A
C3645      C3646   1.394       .  A
C3645      N3652   1.429       .  S
C3646      C3647   1.401       .  A
C3646      H3651   1.083       .  S
C3647      C3648   1.411       .  A
C3648      N3649   1.428       .  S
N3649      O3653   1.262       .  A
N3649      O3654   1.262       .  A
N3652      O3656   1.261       .  A
N3652      O3655   1.262       .  A
C3657      C3658   1.403       .  A
C3657      C3662   1.392       .  A
C3657      H3664   1.078       .  S
C3658      C3659   1.411       .  A
C3659      C3660   1.404       .  A
C3659      N3666   1.428       .  S
C3660      C3661   1.404       .  A
C3660      H3665   1.081       .  S
C3661      C3662   1.405       .  A
C3662      N3663   1.428       .  S
N3663      O3667   1.262       .  A
N3663      O3668   1.262       .  A
N3666      O3670   1.262       .  A
N3666      O3669   1.262       .  A
C3671      C3672   1.404       .  A
C3671      C3676   1.406       .  A
C3671      H3678   1.072       .  S
C3672      C3673   1.405       .  A
C3673      C3674   1.389       .  A
C3673      N3680   1.427       .  S
C3674      C3675   1.406       .  A
C3674      H3679   1.081       .  S
C3675      C3676   1.414       .  A
C3676      N3677   1.428       .  S
N3677      O3681   1.262       .  A
N3677      O3682   1.261       .  A
N3680      O3684   1.262       .  A
N3680      O3683   1.261       .  A
C3685      C3686   1.401       .  A
C3685      C3690   1.402       .  A
C3685      H3692   1.076       .  S
C3686      C3687   1.404       .  A
C3687      C3688   1.402       .  A
C3687      N3694   1.429       .  S
C3688      C3689   1.411       .  A
C3688      H3693   1.081       .  S
C3689      C3690   1.413       .  A
C3690      N3691   1.429       .  S
N3691      O3695   1.262       .  A
N3691      O3696   1.262       .  A
N3694      O3698   1.262       .  A
N3694      O3697   1.262       .  A
C3699      C3704   1.396   1_554  A
C3700      C3701   1.415       .  A
C3701      N3708   1.428       .  S
C3702      C3703   1.403       .  A
C3702      H3707   1.081       .  S
C3703      C3704   1.412       .  A
C3704      N3705   1.430       .  S
N3705      O3709   1.261       .  A
N3705      O3710   1.262       .  A
N3708      O3712   1.262       .  A
N3708      O3711   1.262       .  A
C3713      C3714   1.404       .  A
C3713      C3718   1.405       .  A
C3713      H3720   1.083       .  S
C3714      C3715   1.408       .  A
C3715      C3716   1.402       .  A
C3715      N3722   1.427       .  S
C3716      C3717   1.403       .  A
C3716      H3721   1.083       .  S
C3717      C3718   1.410       .  A
C3718      N3719   1.429       .  S
N3719      O3723   1.262       .  A
N3719      O3724   1.262       .  A
N3722      O3726   1.262       .  A
N3722      O3725   1.262       .  A
C3727      C3728   1.402       .  A
C3727      C3732   1.393       .  A
C3727      H3734   1.083       .  S
C3728      C3729   1.417       .  A
C3729      C3730   1.408       .  A
C3729      N3736   1.428       .  S
C3730      C3731   1.400       .  A
C3730      H3735   1.081       .  S
C3731      C3732   1.407       .  A
C3732      N3733   1.427       .  S
N3733      O3737   1.261       .  A
N3733      O3738   1.262       .  A
N3736      O3740   1.262       .  A
N3736      O3739   1.261       .  A
C3741      C3742   1.399       .  A
C3741      C3746   1.391       .  A
C3741      H3748   1.082       .  S
C3742      C3743   1.411       .  A
C3743      C3744   1.412       .  A
C3743      N3750   1.428       .  S
C3744      C3745   1.406       .  A
C3744      H3749   1.078       .  S
C3745      C3746   1.410       .  A
N3747      O3751   1.261       .  A
N3747      O3752   1.262       .  A
N3750      O3754   1.262       .  A
N3750      O3753   1.262       .  A
C3755      C3756   1.404       .  A
C3755      C3760   1.388       .  A
C3755      H3762   1.083       .  S
C3756      C3757   1.418       .  A
C3757      C3758   1.409       .  A
C3757      N3764   1.431       .  S
C3758      C3759   1.401       .  A
C3758      H3763   1.083       .  S
C3759      C3760   1.401       .  A
C3760      N3761   1.425       .  S
N3761      O3765   1.261       .  A
N3761      O3766   1.260       .  A
N3764      O3768   1.262       .  A
N3764      O3767   1.262       .  A
C3769      C3774   1.403       .  A
C3770      C3771   1.412       .  A
C3771      N3778   1.429       .  S
C3772      C3773   1.401       .  A
C3772      H3777   1.082       .  S
C3773      C3774   1.409       .  A
C3774      N3775   1.428       .  S
N3775      O3779   1.260       .  A
N3775      O3780   1.262       .  A
N3778      O3782   1.262       .  A
N3778      O3781   1.262       .  A
C3783      C3784   1.405       .  A
C3783      C3788   1.404   1_655  A
C3783      H3790   1.082       .  S
C3784      C3785   1.414       .  A
C3785      C3786   1.396   1_655  A
C3785      N3792   1.430       .  S
C3786      C3787   1.404       .  A
C3786      H3791   1.083       .  S
C3787      C3788   1.412       .  A
C3788      N3789   1.428       .  S
N3789      O3793   1.262       .  A
N3789      O3794   1.262       .  A
N3792      O3796   1.262       .  A
N3792      O3795   1.262       .  A
C3797      C3798   1.408       .  A
C3797      C3802   1.411       .  A
C3797      H3804   1.081       .  S
C3798      C3799   1.407       .  A
C3799      C3800   1.390       .  A
C3799      N3806   1.427       .  S
C3800      C3801   1.398       .  A
C3800      H3805   1.073       .  S
C3801      C3802   1.411       .  A
C3802      N3803   1.428       .  S
N3803      O3807   1.262       .  A
N3803      O3808   1.262       .  A
N3806      O3810   1.261       .  A
N3806      O3809   1.262       .  A
C3811      C3812   1.400       .  A
C3811      C3816   1.404   1_455  A
C3811      H3818   1.083       .  S
C3812      C3813   1.408   1_455  A
C3813      C3814   1.393       .  A
C3813      N3820   1.429       .  S
C3814      C3815   1.401       .  A
C3814      H3819   1.083       .  S
C3815      C3816   1.414       .  A
C3816      N3817   1.428   1_655  S
N3817      O3821   1.262       .  A
N3817      O3822   1.262       .  A
N3820      O3824   1.260       .  A
N3820      O3823   1.262       .  A
C3825      C3826   1.400   1_655  A
C3825      C3830   1.394       .  A
C3825      H3832   1.083   1_655  S
C3826      C3827   1.417   1_455  A
C3827      C3828   1.412       .  A
C3827      N3834   1.430       .  S
C3828      C3829   1.406       .  A
C3828      H3833   1.081       .  S
C3829      C3830   1.412       .  A
C3830      N3831   1.429       .  S
N3831      O3835   1.261       .  A
N3831      O3836   1.262       .  A
N3834      O3838   1.262       .  A
N3834      O3837   1.261   1_655  A
C3839      C3840   1.405       .  A
C3839      C3844   1.396       .  A
C3839      H3846   1.083       .  S
C3840      C3841   1.414       .  A
C3841      C3842   1.409       .  A
C3841      N3848   1.428       .  S
C3842      C3843   1.410       .  A
C3842      H3847   1.082       .  S
C3843      C3844   1.416       .  A
C3844      N3845   1.430       .  S
N3845      O3849   1.262       .  A
N3845      O3850   1.262       .  A
N3848      O3852   1.261       .  A
N3848      O3851   1.261       .  A
C3853      C3854   1.412       .  A
C3853      C3858   1.411       .  A
C3853      H3860   1.082       .  S
C3854      C3855   1.418       .  A
C3855      C3856   1.391       .  A
C3855      N3862   1.432       .  S
C3856      C3857   1.401       .  A
C3856      H3861   1.083       .  S
C3857      C3858   1.409       .  A
C3858      N3859   1.428       .  S
N3859      O3863   1.262       .  A
N3859      O3864   1.262       .  A
N3862      O3866   1.262       .  A
N3862      O3865   1.262       .  A
C3867      C3868   1.401       .  A
C3867      C3872   1.402       .  A
C3867      H3874   1.084       .  S
C3868      C3869   1.408       .  A
C3869      C3870   1.404       .  A
C3869      N3876   1.428       .  S
C3870      C3871   1.404       .  A
C3870      H3875   1.084       .  S
C3871      C3872   1.410       .  A
C3872      N3873   1.427       .  S
N3873      O3877   1.262       .  A
N3873      O3878   1.261       .  A
N3876      O3880   1.261       .  A
N3876      O3879   1.262       .  A
C3881      C3882   1.403       .  A
C3881      C3886   1.396       .  A
C3881      H3888   1.083       .  S
C3882      C3883   1.412       .  A
C3883      C3884   1.410       .  A
C3883      N3890   1.427       .  S
C3884      C3885   1.407       .  A
C3884      H3889   1.082       .  S
C3885      C3886   1.414       .  A
C3886      N3887   1.430       .  S
N3887      O3891   1.262       .  A
N3887      O3892   1.262       .  A
N3890      O3894   1.262       .  A
N3890      O3893   1.261       .  A
C3895      C3896   1.399       .  A
C3895      C3900   1.407       .  A
C3895      H3902   1.081       .  S
C3896      C3897   1.406       .  A
C3897      C3898   1.395       .  A
C3897      N3904   1.430       .  S
C3898      C3899   1.406       .  A
C3898      H3903   1.080       .  S
C3899      C3900   1.421       .  A
C3900      N3901   1.428       .  S
N3901      O3905   1.262       .  A
N3901      O3906   1.262       .  A
N3904      O3908   1.262       .  A
N3904      O3907   1.262       .  A
C3909      C3910   1.402       .  A
C3909      C3914   1.394       .  A
C3909      H3916   1.083       .  S
C3910      C3911   1.414       .  A
C3911      C3912   1.402       .  A
C3911      N3918   1.428       .  S
C3912      C3913   1.399       .  A
C3912      H3917   1.081       .  S
C3913      C3914   1.405       .  A
C3914      N3915   1.427       .  S
N3915      O3919   1.261       .  A
N3915      O3920   1.261       .  A
N3918      O3922   1.260       .  A
N3918      O3921   1.262       .  A
C3923      C3924   1.405       .  A
C3923      C3928   1.397       .  A
C3923      H3930   1.083       .  S
C3924      C3925   1.414       .  A
C3925      C3926   1.405       .  A
C3925      N3932   1.429       .  S
C3926      C3927   1.401       .  A
C3926      H3931   1.083       .  S
C3927      C3928   1.408       .  A
C3928      N3929   1.432       .  S
N3929      O3933   1.260       .  A
N3929      O3934   1.261       .  A
N3932      O3936   1.262       .  A
N3932      O3935   1.261       .  A
C3937      C3938   1.400   1_455  A
C3937      C3942   1.392       .  A
C3937      H3944   1.083       .  S
C3938      C3939   1.417   1_655  A
C3939      C3940   1.414       .  A
C3940      C3941   1.406       .  A
C3940      H3945   1.082       .  S
C3941      C3942   1.417       .  A
C3942      N3943   1.431       .  S
N3943      O3947   1.260       .  A
N3943      O3948   1.261       .  A
N3946      O3950   1.262   1_655  A
C3951      C3952   1.404       .  A
C3951      C3956   1.396       .  A
C3951      H3958   1.083       .  S
C3952      C3953   1.417       .  A
C3953      C3954   1.411       .  A
C3953      N3960   1.428       .  S
C3954      C3955   1.405       .  A
C3954      H3959   1.082       .  S
C3955      C3956   1.412       .  A
C3956      N3957   1.430       .  S
N3957      O3961   1.262       .  A
N3957      O3962   1.262       .  A
N3960      O3964   1.262       .  A
N3960      O3963   1.262       .  A
C3965      C3966   1.405       .  A
C3965      C3970   1.399       .  A
C3965      H3972   1.083       .  S
C3966      C3967   1.413       .  A
C3967      C3968   1.394       .  A
C3967      N3974   1.429       .  S
C3968      C3969   1.401       .  A
C3968      H3973   1.083       .  S
C3969      C3970   1.410       .  A
C3970      N3971   1.428       .  S
N3971      O3975   1.261       .  A
N3971      O3976   1.262       .  A
N3974      O3978   1.262       .  A
N3974      O3977   1.262       .  A
C3979      C3980   1.407       .  A
C3979      C3984   1.396       .  A
C3979      H3986   1.082       .  S
C3980      C3981   1.415       .  A
C3981      C3982   1.397       .  A
C3981      N3988   1.428       .  S
C3982      C3983   1.398       .  A
C3982      H3987   1.082       .  S
C3983      C3984   1.405       .  A
C3984      N3985   1.428       .  S
N3985      O3989   1.261       .  A
N3985      O3990   1.262       .  A
N3988      O3992   1.262       .  A
N3988      O3991   1.262       .  A
C3993      C3994   1.405       .  A
C3993      C3998   1.394       .  A
C3993      H4000   1.082       .  S
C3994      C3995   1.416       .  A
C3995      C3996   1.410       .  A
C3995      N4002   1.428       .  S
C3996      C3997   1.404       .  A
C3996      H4001   1.082       .  S
C3997      C3998   1.410       .  A
C3998      N3999   1.428       .  S
N3999      O4003   1.262       .  A
N3999      O4004   1.262       .  A
N4002      O4006   1.262       .  A
N4002      O4005   1.262       .  A
C4007      C4008   1.402       .  A
C4007      C4012   1.394       .  A
C4007      H4014   1.083       .  S
C4008      C4009   1.408   1_545  A
C4009      C4010   1.398       .  A
C4009      N4016   1.429       .  S
C4010      C4011   1.401       .  A
C4010      H4015   1.082       .  S
C4011      C4012   1.405   1_565  A
C4012      N4013   1.429       .  S
N4013      O4017   1.261       .  A
N4013      O4018   1.262       .  A
N4016      O4020   1.262       .  A
N4016      O4019   1.262       .  A
C4021      C4022   1.401       .  A
C4021      C4026   1.395       .  A
C4021      H4028   1.083       .  S
C4022      C4023   1.414       .  A
C4023      C4024   1.409       .  A
C4023      N4030   1.427       .  S
C4024      C4025   1.403       .  A
C4024      H4029   1.082       .  S
C4025      C4026   1.409       .  A
C4026      N4027   1.426       .  S
N4027      O4031   1.262       .  A
N4027      O4032   1.262       .  A
N4030      O4034   1.261       .  A
N4030      O4033   1.261       .  A
C4035      C4036   1.410   1_565  A
C4035      C4040   1.401       .  A
C4035      H4042   1.081       .  S
C4036      C4037   1.416   1_545  A
C4037      C4038   1.404       .  A
C4037      N4044   1.429   1_565  S
C4038      C4039   1.400       .  A
C4038      H4043   1.077       .  S
C4039      C4040   1.404       .  A
C4040      N4041   1.428       .  S
N4041      O4045   1.262       .  A
N4041      O4046   1.262       .  A
N4044      O4048   1.262       .  A
N4044      O4047   1.262       .  A
C4049      C4050   1.405       .  A
C4049      C4054   1.396       .  A
C4049      H4056   1.083       .  S
C4050      C4051   1.411       .  A
C4051      C4052   1.410       .  A
C4051      N4058   1.429       .  S
C4052      C4053   1.411       .  A
C4052      H4057   1.082       .  S
C4053      C4054   1.416       .  A
C4054      N4055   1.430       .  S
N4055      O4059   1.262       .  A
N4055      O4060   1.262       .  A
N4058      O4062   1.262       .  A
N4058      O4061   1.261       .  A
C4063      C4064   1.400       .  A
C4063      C4068   1.403       .  A
C4063      H4070   1.082       .  S
C4064      C4065   1.404       .  A
C4065      C4066   1.388       .  A
C4065      N4072   1.428       .  S
C4066      C4067   1.405       .  A
C4066      H4071   1.082       .  S
C4067      C4068   1.416       .  A
C4068      N4069   1.428       .  S
N4069      O4073   1.262       .  A
N4069      O4074   1.261       .  A
N4072      O4076   1.262       .  A
N4072      O4075   1.261       .  A
C4077      C4078   1.405       .  A
C4077      H4084   1.084       .  S
C4079      C4080   1.391   1_554  A
C4080      C4081   1.400       .  A
C4080      H4085   1.084       .  S
C4081      C4082   1.412       .  A
C4082      N4083   1.430       .  S
N4083      O4087   1.262       .  A
N4083      O4088   1.262       .  A
N4086      O4089   1.262       .  A
C4091      C4092   1.400       .  A
C4091      C4096   1.396       .  A
C4092      C4093   1.406       .  A
C4093      C4094   1.397       .  A
C4093      N4100   1.427       .  S
C4094      C4095   1.402       .  A
C4094      H4099   1.084       .  S
C4095      C4096   1.412       .  A
C4096      N4097   1.430       .  S
N4097      O4101   1.262       .  A
N4097      O4102   1.262       .  A
N4100      O4104   1.261       .  A
N4100      O4103   1.261       .  A
C4105      C4106   1.405       .  A
C4105      C4110   1.401       .  A
C4105      H4112   1.083       .  S
C4106      C4107   1.414       .  A
C4107      C4108   1.405       .  A
C4107      N4114   1.429       .  S
C4108      C4109   1.404       .  A
C4108      H4113   1.083       .  S
C4109      C4110   1.408       .  A
C4110      N4111   1.425       .  S
N4111      O4115   1.262       .  A
N4111      O4116   1.262       .  A
N4114      O4118   1.262       .  A
N4114      O4117   1.262       .  A
C4119      C4120   1.413       .  A
C4119      C4124   1.416       .  A
C4119      H4126   1.082       .  S
C4120      C4121   1.412       .  A
C4121      C4122   1.383       .  A
C4121      N4128   1.431       .  S
C4122      C4123   1.396       .  A
C4122      H4127   1.079       .  S
C4123      C4124   1.409       .  A
C4124      N4125   1.429       .  S
N4125      O4129   1.261       .  A
N4125      O4130   1.262       .  A
N4128      O4132   1.262       .  A
N4128      O4131   1.262       .  A
C4133      C4134   1.407       .  A
C4133      C4138   1.411   1_545  A
C4133      H4140   1.082       .  S
C4134      C4135   1.417       .  A
C4135      C4136   1.390   1_545  A
C4135      N4142   1.431       .  S
C4136      C4137   1.403       .  A
C4136      H4141   1.083       .  S
C4137      C4138   1.415       .  A
C4138      N4139   1.427       .  S
N4139      O4143   1.262       .  A
N4139      O4144   1.262       .  A
N4142      O4146   1.262       .  A
N4142      O4145   1.262       .  A
C4147      C4148   1.398       .  A
C4147      H4154   1.072       .  S
C4148      C4149   1.403       .  A
C4149      N4156   1.424       .  S
C4150      C4151   1.399       .  A
C4150      H4155   1.083       .  S
C4151      C4152   1.401       .  A
C4152      N4153   1.431       .  S
N4153      O4157   1.260       .  A
N4153      O4158   1.261       .  A
N4156      O4160   1.260       .  A
N4156      O4159   1.262       .  A
C4161      C4162   1.396       .  A
C4161      C4166   1.391       .  A
C4161      H4168   1.083       .  S
C4162      C4163   1.412       .  A
C4163      C4164   1.401       .  A
C4163      N4170   1.429       .  S
C4164      C4165   1.400       .  A
C4164      H4169   1.083       .  S
C4165      C4166   1.408       .  A
C4166      N4167   1.427       .  S
N4167      O4171   1.262       .  A
N4167      O4172   1.261       .  A
N4170      O4174   1.261       .  A
N4170      O4173   1.261       .  A
C4175      C4176   1.400       .  A
C4175      C4180   1.393       .  A
C4175      H4182   1.080       .  S
C4176      C4177   1.407       .  A
C4177      C4178   1.395       .  A
C4177      N4184   1.429       .  S
C4178      C4179   1.402       .  A
C4178      H4183   1.078       .  S
C4179      C4180   1.407       .  A
C4180      N4181   1.429       .  S
N4181      O4185   1.262       .  A
N4181      O4186   1.261       .  A
N4184      O4188   1.262       .  A
N4184      O4187   1.262       .  A
C4189      C4190   1.404       .  A
C4189      C4194   1.400       .  A
C4189      H4196   1.083       .  S
C4190      C4191   1.406       .  A
C4191      C4192   1.405       .  A
C4191      N4198   1.428       .  S
C4192      C4193   1.412       .  A
C4192      H4197   1.082       .  S
C4193      C4194   1.416       .  A
C4194      N4195   1.430       .  S
N4195      O4199   1.262       .  A
N4195      O4200   1.262       .  A
N4198      O4202   1.262       .  A
N4198      O4201   1.262       .  A
C4203      C4204   1.401       .  A
C4203      C4208   1.392       .  A
C4203      H4210   1.083       .  S
C4204      C4205   1.417       .  A
C4205      C4206   1.414       .  A
C4205      N4212   1.429       .  S
C4206      C4207   1.408       .  A
C4206      H4211   1.084       .  S
C4207      C4208   1.420       .  A
C4208      N4209   1.432       .  S
N4209      O4213   1.262       .  A
N4209      O4214   1.261       .  A
N4212      O4216   1.262       .  A
N4212      O4215   1.262       .  A
C4217      C4218   1.401       .  A
C4217      C4222   1.400       .  A
C4217      H4224   1.083       .  S
C4218      C4219   1.407       .  A
C4219      C4220   1.396       .  A
C4219      N4226   1.428       .  S
C4220      C4221   1.401       .  A
C4220      H4225   1.081       .  S
C4221      C4222   1.409       .  A
C4222      N4223   1.426       .  S
N4223      O4227   1.261       .  A
N4223      O4228   1.262       .  A
N4226      O4230   1.261       .  A
N4226      O4229   1.262       .  A
C4231      C4232   1.403       .  A
C4231      C4236   1.391       .  A
C4231      H4238   1.083       .  S
C4232      C4233   1.415       .  A
C4233      C4234   1.403       .  A
C4233      N4240   1.429       .  S
C4234      C4235   1.399       .  A
C4234      H4239   1.083       .  S
C4235      C4236   1.405       .  A
C4236      N4237   1.429       .  S
N4237      O4241   1.262       .  A
N4237      O4242   1.261       .  A
N4240      O4244   1.262       .  A
N4240      O4243   1.262       .  A
C4245      C4246   1.404       .  A
C4245      C4250   1.400       .  A
C4245      H4252   1.083   1_545  S
C4247      C4248   1.410       .  A
C4247      N4254   1.429       .  S
C4248      H4253   1.082       .  S
C4249      C4250   1.409       .  A
C4250      N4251   1.429       .  S
N4251      O4255   1.262       .  A
N4251      O4256   1.262       .  A
N4254      O4258   1.261       .  A
N4254      O4257   1.262       .  A
C4259      C4260   1.410       .  A
C4259      C4264   1.407       .  A
C4259      H4266   1.082       .  S
C4260      C4261   1.416       .  A
C4261      C4262   1.393       .  A
C4261      N4268   1.430       .  S
C4262      C4263   1.403       .  A
C4262      H4267   1.083       .  S
C4263      C4264   1.410       .  A
C4264      N4265   1.428       .  S
N4265      O4269   1.262       .  A
N4265      O4270   1.262   1_556  A
N4268      O4272   1.262       .  A
N4268      O4271   1.262       .  A
C4273      C4274   1.403       .  A
C4273      C4278   1.396       .  A
C4273      H4280   1.083       .  S
C4274      C4275   1.410       .  A
C4275      C4276   1.411       .  A
C4275      N4282   1.427       .  S
C4276      C4277   1.408       .  A
C4277      C4278   1.413       .  A
C4278      N4279   1.431       .  S
N4279      O4283   1.262       .  A
N4282      O4285   1.262       .  A
C4287      C4288   1.402       .  A
C4287      C4292   1.397       .  A
C4287      H4294   1.079       .  S
C4288      C4289   1.406       .  A
C4289      C4290   1.401       .  A
C4289      N4296   1.429       .  S
C4290      C4291   1.405       .  A
C4290      H4295   1.048       .  S
C4291      C4292   1.413       .  A
C4292      N4293   1.430       .  S
N4293      O4297   1.261       .  A
N4293      O4298   1.262       .  A
N4296      O4300   1.262       .  A
N4296      O4299   1.262       .  A
C4301      C4302   1.406       .  A
C4301      C4306   1.402       .  A
C4301      H4308   1.082       .  S
C4302      C4303   1.413       .  A
C4303      C4304   1.390       .  A
C4303      N4310   1.429       .  S
C4304      C4305   1.402       .  A
C4304      H4309   1.083       .  S
C4305      C4306   1.412       .  A
C4306      N4307   1.428       .  S
N4307      O4311   1.262       .  A
N4307      O4312   1.262       .  A
N4310      O4314   1.262       .  A
N4310      O4313   1.261       .  A
C4315      C4316   1.401       .  A
C4315      C4320   1.409       .  A
C4315      H4322   1.081       .  S
C4316      C4317   1.409       .  A
C4317      C4318   1.394       .  A
C4317      N4324   1.430       .  S
C4318      C4319   1.404       .  A
C4318      H4323   1.075       .  S
C4319      C4320   1.421       .  A
C4320      N4321   1.428       .  S
N4321      O4325   1.262       .  A
N4321      O4326   1.262       .  A
N4324      O4328   1.262       .  A
N4324      O4327   1.262       .  A
C4329      C4330   1.412       .  A
C4329      C4334   1.410       .  A
C4329      H4336   1.082       .  S
C4330      C4331   1.416       .  A
C4331      C4332   1.396       .  A
C4331      N4338   1.430       .  S
C4332      C4333   1.403       .  A
C4332      H4337   1.081       .  S
C4333      C4334   1.410       .  A
C4334      N4335   1.428       .  S
N4335      O4339   1.261       .  A
N4335      O4340   1.262       .  A
N4338      O4342   1.262       .  A
N4338      O4341   1.262       .  A
C4343      C4344   1.402       .  A
C4343      C4348   1.406   1_556  A
C4343      H4350   1.084       .  S
C4344      C4345   1.412       .  A
C4345      N4352   1.431       .  S
C4346      C4347   1.395       .  A
C4346      H4351   1.085       .  S
N4349      O4354   1.262       .  A
N4352      O4356   1.262       .  A
N4352      O4355   1.262       .  A
C4357      C4358   1.406       .  A
C4357      C4362   1.392       .  A
C4357      H4364   1.082       .  S
C4358      C4359   1.418       .  A
C4359      C4360   1.406       .  A
C4359      N4366   1.428       .  S
C4360      C4361   1.400       .  A
C4360      H4365   1.082       .  S
C4361      C4362   1.403       .  A
C4362      N4363   1.429       .  S
N4363      O4367   1.261       .  A
N4363      O4368   1.262       .  A
N4366      O4370   1.262       .  A
N4366      O4369   1.262       .  A
C4371      C4372   1.406       .  A
C4371      C4376   1.398       .  A
C4371      H4378   1.079       .  S
C4372      C4373   1.420       .  A
C4373      C4374   1.404       .  A
C4373      N4380   1.428       .  S
C4374      C4375   1.398       .  A
C4374      H4379   1.082       .  S
C4375      C4376   1.407       .  A
C4376      N4377   1.430       .  S
N4377      O4381   1.262       .  A
N4377      O4382   1.262       .  A
N4380      O4384   1.262       .  A
N4380      O4383   1.262       .  A
C4385      C4386   1.402       .  A
C4385      C4390   1.392       .  A
C4385      H4392   1.083       .  S
C4386      C4387   1.411       .  A
C4387      C4388   1.404       .  A
C4387      N4394   1.428       .  S
C4388      C4389   1.405       .  A
C4388      H4393   1.082       .  S
C4389      C4390   1.414       .  A
C4390      N4391   1.432       .  S
N4391      O4395   1.262       .  A
N4391      O4396   1.262       .  A
N4394      O4398   1.262       .  A
N4394      O4397   1.262       .  A
C4399      C4400   1.402       .  A
C4399      H4406   1.081       .  S
C4401      C4402   1.404       .  A
C4402      C4403   1.405       .  A
C4402      H4407   1.082       .  S
C4403      C4404   1.408       .  A
C4404      N4405   1.427       .  S
N4405      O4409   1.260       .  A
N4405      O4410   1.262       .  A
N4408      O4411   1.262       .  A
C4413      C4414   1.405       .  A
C4413      C4418   1.409       .  A
C4413      H4420   1.081       .  S
C4414      C4415   1.407       .  A
C4415      C4416   1.389       .  A
C4415      N4422   1.428       .  S
C4416      C4417   1.399       .  A
C4416      H4421   1.083       .  S
C4417      C4418   1.410       .  A
N4419      O4423   1.262       .  A
N4419      O4424   1.262       .  A
N4422      O4426   1.262       .  A
N4422      O4425   1.260       .  A
C4427      C4428   1.408       .  A
C4427      C4432   1.402       .  A
C4427      H4434   1.082       .  S
C4428      C4429   1.412       .  A
C4429      C4430   1.394       .  A
C4429      N4436   1.430       .  S
C4430      C4431   1.403       .  A
C4430      H4435   1.083       .  S
C4431      C4432   1.408       .  A
C4432      N4433   1.429       .  S
N4433      O4437   1.262       .  A
N4433      O4438   1.262       .  A
N4436      O4440   1.262       .  A
N4436      O4439   1.262       .  A
C4441      C4442   1.402       .  A
C4441      C4446   1.392       .  A
C4441      H4448   1.083       .  S
C4442      C4443   1.415       .  A
C4443      C4444   1.412       .  A
C4443      N4450   1.429       .  S
C4444      C4445   1.408       .  A
C4444      H4449   1.082       .  S
C4445      C4446   1.414       .  A
C4446      N4447   1.430       .  S
N4447      O4451   1.262       .  A
N4447      O4452   1.261       .  A
N4450      O4454   1.261       .  A
N4450      O4453   1.262       .  A
C4455      C4456   1.398       .  A
C4455      C4460   1.406       .  A
C4455      H4462   1.083       .  S
C4456      C4457   1.408       .  A
C4457      C4458   1.395       .  A
C4457      N4464   1.430       .  S
C4458      C4459   1.406       .  A
C4458      H4463   1.083       .  S
C4459      C4460   1.421       .  A
C4460      N4461   1.428       .  S
N4461      O4465   1.262       .  A
N4461      O4466   1.262       .  A
N4464      O4468   1.262       .  A
N4464      O4467   1.262       .  A
C4469      C4470   1.402       .  A
C4469      C4474   1.391       .  A
C4469      H4476   1.083       .  S
C4470      C4471   1.411       .  A
C4471      C4472   1.403       .  A
C4471      N4478   1.428       .  S
C4472      C4473   1.404       .  A
C4472      H4477   1.083       .  S
C4473      C4474   1.408       .  A
C4474      N4475   1.429       .  S
N4475      O4479   1.261       .  A
N4475      O4480   1.262       .  A
N4478      O4482   1.262       .  A
N4478      O4481   1.262       .  A
C4483      C4484   1.408       .  A
C4483      C4488   1.400       .  A
C4483      H4490   1.082       .  S
C4484      C4485   1.414       .  A
C4485      C4486   1.387       .  A
C4485      N4492   1.431       .  S
C4486      C4487   1.397       .  A
C4486      H4491   1.082       .  S
C4487      C4488   1.403       .  A
C4488      N4489   1.428       .  S
N4489      O4493   1.262       .  A
N4489      O4494   1.262       .  A
N4492      O4496   1.262       .  A
N4492      O4495   1.262       .  A
C4497      C4498   1.398       .  A
C4497      C4502   1.395       .  A
C4497      H4504   1.085       .  S
C4498      C4499   1.405       .  A
C4499      C4500   1.406       .  A
C4499      N4506   1.429       .  S
C4500      C4501   1.408       .  A
C4500      H4505   1.084       .  S
C4501      C4502   1.413       .  A
C4502      N4503   1.430       .  S
N4503      O4507   1.262       .  A
N4503      O4508   1.262       .  A
N4506      O4510   1.262       .  A
N4506      O4509   1.261       .  A
C4511      C4512   1.405       .  A
C4511      C4516   1.384       .  A
C4511      H4518   1.082       .  S
C4512      C4513   1.414       .  A
C4513      C4514   1.413       .  A
C4513      N4520   1.427       .  S
C4514      C4515   1.410       .  A
C4514      H4519   1.082       .  S
C4515      C4516   1.414       .  A
C4516      N4517   1.431       .  S
N4517      O4521   1.262       .  A
N4517      O4522   1.262       .  A
N4520      O4524   1.262       .  A
N4520      O4523   1.262       .  A
C4525      C4526   1.403   1_455  A
C4525      C4530   1.401       .  A
C4525      H4532   1.083   1_455  S
C4526      C4527   1.419   1_655  A
C4527      C4528   1.405       .  A
C4527      N4534   1.428       .  S
C4528      C4529   1.399       .  A
C4528      H4533   1.083       .  S
C4529      C4530   1.409       .  A
C4530      N4531   1.425       .  S
N4531      O4535   1.262       .  A
N4531      O4536   1.262       .  A
N4534      O4538   1.262   1_455  A
N4534      O4537   1.262       .  A
C4539      C4540   1.407       .  A
C4539      C4544   1.402       .  A
C4539      H4546   1.082       .  S
C4540      C4541   1.411       .  A
C4541      C4542   1.393       .  A
C4541      N4548   1.429       .  S
C4542      C4543   1.404       .  A
C4542      H4547   1.083       .  S
C4543      C4544   1.409       .  A
C4544      N4545   1.429       .  S
N4545      O4549   1.262       .  A
N4545      O4550   1.262       .  A
N4548      O4552   1.262       .  A
N4548      O4551   1.262       .  A
C4553      C4554   1.401       .  A
C4553      C4558   1.392       .  A
C4553      H4560   1.082       .  S
C4554      C4555   1.413       .  A
C4555      C4556   1.411       .  A
C4555      N4562   1.427       .  S
C4556      C4557   1.407       .  A
C4556      H4561   1.082       .  S
C4557      C4558   1.418       .  A
C4558      N4559   1.433       .  S
N4559      O4563   1.261       .  A
N4559      O4564   1.262       .  A
N4562      O4566   1.262       .  A
N4562      O4565   1.262       .  A
C4567      C4568   1.399       .  A
C4567      C4572   1.389       .  A
C4567      H4574   1.084       .  S
C4568      C4569   1.408       .  A
C4569      C4570   1.413       .  A
C4569      N4576   1.428       .  S
C4570      C4571   1.409       .  A
C4570      H4575   1.083       .  S
C4571      C4572   1.408       .  A
C4572      N4573   1.429       .  S
N4573      O4577   1.262       .  A
N4573      O4578   1.262       .  A
N4576      O4580   1.262       .  A
N4576      O4579   1.262       .  A
C4581      C4582   1.411       .  A
C4581      C4586   1.407       .  A
C4581      H4588   1.084       .  S
C4582      C4583   1.411       .  A
C4583      C4584   1.394       .  A
C4583      N4590   1.428       .  S
C4584      C4585   1.399       .  A
C4584      H4589   1.085       .  S
C4585      C4586   1.407       .  A
C4586      N4587   1.430       .  S
N4587      O4591   1.261       .  A
N4587      O4592   1.262       .  A
N4590      O4594   1.261       .  A
N4590      O4593   1.262       .  A
C4595      C4596   1.396       .  A
C4595      C4600   1.396       .  A
C4595      H4602   1.049       .  S
C4596      C4597   1.409       .  A
C4597      C4598   1.400       .  A
C4597      N4604   1.430       .  S
C4598      C4599   1.402       .  A
C4598      H4603   1.079       .  S
C4599      C4600   1.409       .  A
C4600      N4601   1.426       .  S
N4601      O4605   1.262       .  A
N4601      O4606   1.262       .  A
N4604      O4608   1.261       .  A
N4604      O4607   1.262       .  A
