geometry optimzed in LAMMPS
_audit_creation_date              2020-12-01 
_audit_creation_method            'lammps2cif' 
_symmetry_space_group_name_H-M    'P1' 
_symmetry_Int_Tables_number       1 
_symmetry_cell_setting            triclinic 
loop_ 
_symmetry_equiv_pos_as_xyz 
  x,y,z 
_cell_length_a                    38.02303972 
_cell_length_b                    37.73513698084193 
_cell_length_c                    38.828777675842204 
_cell_angle_alpha                 90.14277169960243 
_cell_angle_beta                  90.03551643230652 
_cell_angle_gamma                 89.911013906138 
loop_ 
_atom_site_label 
_atom_site_type_symbol 
_atom_site_fract_x 
_atom_site_fract_y 
_atom_site_fract_z 
_atom_site_charge 
O1          O  0.38531633  0.97769138  0.12744654    -0.82000
C2          C  0.50906362  0.89793001  0.12766865     0.97400
O3          O  0.50889429  0.93081395  0.13453702    -0.71100
O4          O  0.47435353  0.94941222  0.08106088    -0.74700
Al5        Al  0.46885603  0.96227143  0.12660719     1.49000
C6          C  0.45157463  0.95729827  0.05927768     0.92600
O7          O  0.40414526  0.89052960  0.08615390    -0.80900
O8          O  0.40386354  0.90494334  0.18675219    -0.74500
Al9        Al  0.39659466  0.93361975  0.10793557     1.90100
O10         O  0.41623256  0.85909944  0.13215026    -0.73600
O11         O  0.47022518  0.92240731  0.19388443    -0.73400
O12         O  0.48263519  0.87942218  0.13488040    -0.79100
O13         O  0.46604335  0.97619411  0.17223055    -0.77300
O14         O  0.43582568  0.93006778  0.13196762    -1.13400
O15         O  0.43617662  0.00158246  0.11574308    -0.72600
C16         C  0.40284158  0.00425788  0.11843217     0.98100
C17         C  0.40403946  0.86140414  0.10161976     0.94500
Al18       Al  0.44306820  0.89404238  0.15999700     1.55600
O19         O  0.41894934  0.95585514  0.06683841    -0.77200
C20         C  0.47278498  0.95608172  0.19714778     0.98700
C21         C  0.37302788  0.90432956  0.17513499     0.93600
O22         O  0.36684864  0.91220100  0.14377196    -0.82500
O23         O  0.10892120  0.01053503  0.37705639    -0.82000
C24         C  0.98689550  0.08887196  0.37590782     0.97400
O25         O  0.98734559  0.05693883  0.38610059    -0.71100
O26         O  0.01839269  0.03415080  0.33274919    -0.74700
Al27       Al  0.02683913  0.02488496  0.37790743     1.49000
C28         C  0.03934776  0.02581535  0.30944015     0.92600
O29         O  0.09064741  0.09379330  0.32934795    -0.80900
O30         O  0.09411867  0.08588369  0.43086480    -0.74500
Al31       Al  0.09773209  0.05213029  0.35387308     1.90100
O32         O  0.07955289  0.12783215  0.37419126    -0.73600
O33         O  0.02736645  0.06951262  0.44191197    -0.73400
O34         O  0.01335023  0.10822388  0.38059699    -0.79100
O35         O  0.03326289  0.01454122  0.42364393    -0.77300
O36         O  0.05969374  0.05772747  0.37905966    -1.13400
O37         O  0.05864199  0.98480695  0.36746637    -0.72600
C38         C  0.09194073  0.98312655  0.37002831     0.98100
C39         C  0.09076353  0.12376547  0.34343889     0.94500
Al40       Al  0.05374941  0.09536601  0.40519203     1.55600
O41         O  0.07259424  0.02715305  0.31490218    -0.77200
C42         C  0.02632515  0.03603388  0.44738327     0.98700
C43         C  0.12448712  0.08551071  0.41799957     0.93600
O44         O  0.12923002  0.07573783  0.38688970    -0.82500
O45         O  0.23643314  0.85255797  0.25923224    -0.82000
C46         C  0.15276831  0.73316249  0.25327387     0.97400
O47         O  0.18515967  0.73124161  0.26127041    -0.71100
O48         O  0.20918782  0.76514484  0.21007969    -0.74700
Al49       Al  0.21892969  0.77003379  0.25582294     1.49000
C50         C  0.21800714  0.78771318  0.18831278     0.92600
O51         O  0.15195713  0.83811199  0.21242152    -0.80900
O52         O  0.16281818  0.83840002  0.31374889    -0.74500
Al53       Al  0.19407864  0.84370586  0.23631963     1.90100
O54         O  0.11864971  0.82705160  0.25745992    -0.73600
O55         O  0.17648093  0.77036425  0.32206260    -0.73400
O56         O  0.13540209  0.76014532  0.26156490    -0.79100
O57         O  0.23029904  0.77249949  0.30174029    -0.77300
O58         O  0.18783173  0.80441747  0.25983459    -1.13400
O59         O  0.25998397  0.80127316  0.24712480    -0.72600
C60         C  0.26287345  0.83471674  0.25068340     0.98100
C61         C  0.12223007  0.83837212  0.22668053     0.94500
Al62       Al  0.15096117  0.79908550  0.28694279     1.55600
O63         O  0.21768285  0.82059325  0.19601838    -0.77200
C64         C  0.20964954  0.76625939  0.32613233     0.98700
C65         C  0.16327928  0.86921259  0.30155148     0.93600
O66         O  0.17209912  0.87454386  0.27043386    -0.82500
O67         O  0.87239957  0.90831068  0.12641247    -0.82000
C68         C  0.01367720  0.90070655  0.14074825     0.97400
O69         O  0.98839934  0.88071947  0.13329480    -0.71100
O70         O  0.92292365  0.85781803  0.13654520    -0.74700
Al71       Al  0.94826682  0.89311579  0.10822301     1.49000
C72         C  0.91169909  0.85995656  0.16740408     0.92600
O73         O  0.92471353  0.95434192  0.20201064    -0.80900
O74         O  0.93749555  0.00117351  0.15152303    -0.74500
Al75       Al  0.90180564  0.93122696  0.16136582     1.90100
O76         O  0.97948591  0.95214254  0.18486529    -0.73600
O77         O  0.96579616  0.97578112  0.09483541    -0.73400
O78         O  0.01256168  0.93310159  0.13186965    -0.79100
O79         O  0.97421141  0.92229709  0.07375260    -0.77300
O80         O  0.94011031  0.92921930  0.13622920    -1.13400
O81         O  0.90797345  0.90144465  0.08200673    -0.72600
C82         C  0.87777045  0.89960993  0.09509658     0.98100
C83         C  0.95765330  0.95626155  0.20838213     0.94500
Al84       Al  0.97147871  0.96324763  0.14011003     1.55600
O85         O  0.91182999  0.88888644  0.18320172    -0.77200
C86         C  0.97408392  0.95607527  0.07009620     0.98700
C87         C  0.90410832  0.00171146  0.14900719     0.93600
O88         O  0.88792400  0.97390069  0.14148129    -0.82500
O89         O  0.82414695  0.11025323  0.25055528    -0.82000
C90         C  0.83999136  0.25293321  0.26568250     0.97400
O91         O  0.85815312  0.22614572  0.25850111    -0.71100
O92         O  0.87725694  0.15939562  0.26207620    -0.74700
Al93       Al  0.84339647  0.18626965  0.23346639     1.49000
C94         C  0.87463243  0.14827057  0.29294461     0.92600
O95         O  0.78034776  0.16517888  0.32615328    -0.80900
O96         O  0.73531858  0.18207049  0.27643559    -0.74500
Al97       Al  0.80261216  0.14130223  0.28550268     1.90100
O98         O  0.78701614  0.22061692  0.31089426    -0.73600
O99         O  0.76217247  0.20974855  0.21954954    -0.73400
O100        O  0.80757547  0.25330039  0.25751840    -0.79100
O101        O  0.81602067  0.21365414  0.19903474    -0.77300
O102        O  0.80707039  0.18013824  0.26113050    -1.13400
O103        O  0.83269758  0.14624990  0.20693969    -0.72600
C104        C  0.83285067  0.11544329  0.21924917     0.98100
C105        C  0.77980589  0.19825693  0.33335644     0.94500
Al106      Al  0.77523673  0.21392675  0.26539345     1.55600
O107        O  0.84525173  0.14844581  0.30774444    -0.77200
C108        C  0.78264216  0.21557204  0.19484406     0.98700
C109        C  0.73268803  0.14854885  0.27351908     0.93600
O110        O  0.75920791  0.13070140  0.26499165    -0.82500
O111        O  0.16662902  0.37707751  0.25963314    -0.82000
C112        C  0.15287414  0.23410618  0.26009007     0.97400
O113        O  0.13511646  0.26124630  0.25341494    -0.71100
O114        O  0.11668672  0.32698827  0.26378760    -0.74700
Al115      Al  0.15128260  0.30323804  0.23355701     1.49000
C116        C  0.11760911  0.33337557  0.29611302     0.92600
O117        O  0.21151794  0.31617245  0.33015278    -0.80900
O118        O  0.25713263  0.30420383  0.27991654    -0.74500
Al119      Al  0.18895990  0.34277102  0.29174381     1.90100
O120        O  0.20519524  0.26211241  0.31076756    -0.73600
O121        O  0.23226445  0.27977845  0.22077565    -0.73400
O122        O  0.18576905  0.23411652  0.25409210    -0.79100
O123        O  0.17956923  0.27903766  0.19745979    -0.77300
O124        O  0.18615828  0.30638746  0.26338103    -1.13400
O125        O  0.16380373  0.34573276  0.21209492    -0.72600
C126        C  0.15990177  0.37487685  0.22744820     0.98100
C127        C  0.21257347  0.28274577  0.33482044     0.94500
Al128      Al  0.21789837  0.27254546  0.26584174     1.55600
O129        O  0.14606921  0.33149158  0.31238875    -0.77200
C130        C  0.21291416  0.27536927  0.19489700     0.98700
C131        C  0.25923123  0.33797322  0.28015615     0.93600
O132        O  0.23242747  0.35629324  0.27331118    -0.82500
O133        O  0.11911795  0.58028252  0.13364325    -0.82000
C134        C  0.97823162  0.58924448  0.13744279     0.97400
O135        O  0.00421883  0.60868890  0.13123409    -0.71100
O136        O  0.06947389  0.63079235  0.13975065    -0.74700
Al137      Al  0.04543308  0.59564365  0.10938237     1.49000
C138        C  0.07746153  0.62861750  0.17160163     0.92600
O139        O  0.05976447  0.53300874  0.20422331    -0.80900
O140        O  0.05230943  0.48648393  0.15073133    -0.74500
Al141      Al  0.08626752  0.55715968  0.16621307     1.90100
O142        O  0.00692226  0.53376952  0.18186140    -0.73600
O143        O  0.02853103  0.51389373  0.09191171    -0.73400
O144        O  0.97903117  0.55671312  0.12823081    -0.79100
O145        O  0.02104255  0.56808310  0.07274196    -0.77300
O146        O  0.05062330  0.55908809  0.13757093    -1.13400
O147        O  0.08716660  0.58547848  0.08647113    -0.72600
C148        C  0.11640557  0.58752489  0.10151758     0.98100
C149        C  0.02662180  0.52801905  0.20667959     0.94500
Al150      Al  0.01912438  0.52503612  0.13757103     1.55600
O151        O  0.07336653  0.59980515  0.18712440    -0.77200
C152        C  0.02146791  0.53458009  0.06764884     0.98700
C153        C  0.08570651  0.48640691  0.15368750     0.93600
O154        O  0.10254056  0.51432521  0.14802936    -0.82500
O155        O  0.87927243  0.47955548  0.38226997    -0.82000
C156        C  0.00719384  0.40622137  0.36902502     0.97400
O157        O  0.00513339  0.43941416  0.37434830    -0.71100
O158        O  0.96496153  0.46371352  0.32704393    -0.74700
Al159      Al  0.96324938  0.46973470  0.37374869     1.49000
C160        C  0.93990193  0.47180900  0.30784930     0.92600
O161        O  0.89914426  0.39818855  0.33168715    -0.80900
O162        O  0.90508157  0.40367592  0.43344140    -0.74500
Al163      Al  0.89132377  0.43862616  0.35772377     1.90100
O164        O  0.91659650  0.36403605  0.37431818    -0.73600
O165        O  0.97162636  0.42494212  0.43877941    -0.73400
O166        O  0.98220976  0.38627400  0.37690210    -0.79100
O167        O  0.96402047  0.47908347  0.42004819    -0.77300
O168        O  0.93259785  0.43518954  0.37861295    -1.13400
O169        O  0.92802473  0.50748409  0.37020952    -0.72600
C170        C  0.89490400  0.50770638  0.37479907     0.98100
C171        C  0.90170509  0.36803044  0.34498636     0.94500
Al172      Al  0.94333589  0.39759776  0.40396906     1.55600
O173        O  0.90835258  0.46631216  0.31734115    -0.77200
C174        C  0.97366921  0.45854467  0.44343294     0.98700
C175        C  0.87397992  0.40202272  0.42274893     0.93600
O176        O  0.86587189  0.41228218  0.39263236    -0.82500
O177        O  0.32711203  0.61364993  0.00559804    -0.82000
C178        C  0.33701785  0.75568197  0.01552858     0.97400
O179        O  0.36253388  0.73334131  0.50710508    -0.71100
O180        O  0.37784468  0.66396566  0.01017871    -0.74700
Al181      Al  0.34711419  0.69198210  0.48515618     1.49000
C182        C  0.37830642  0.65444328  0.04160310     0.92600
O183        O  0.28572956  0.66997312  0.08145687    -0.80900
O184        O  0.23696471  0.68185863  0.03165316    -0.74500
Al185      Al  0.30675623  0.64514187  0.04074727     1.90100
O186        O  0.28673339  0.72447960  0.06246550    -0.73600
O187        O  0.26519498  0.71262145  0.47449579    -0.73400
O188        O  0.30449938  0.75538253  0.00786033    -0.79100
O189        O  0.31751336  0.71734034  0.45097358    -0.77300
O190        O  0.30718589  0.68275854  0.01382469    -1.13400
O191        O  0.33465226  0.65054336  0.46208407    -0.72600
C192        C  0.33724524  0.62079292  0.47642300     0.98100
C193        C  0.28226920  0.70323113  0.08649208     0.94500
Al194      Al  0.27407637  0.71518297  0.01804771     1.55600
O195        O  0.35080064  0.65562668  0.05943488    -0.77200
C196        C  0.28396928  0.71905273  0.44866762     0.98700
C197        C  0.23602393  0.64813461  0.03219447     0.93600
O198        O  0.26289904  0.63045392  0.02482129    -0.82500
O199        O  0.73196341  0.35195951  0.49835986    -0.82000
C200        C  0.65739403  0.23024112  0.00422253     0.97400
O201        O  0.68979594  0.23089872  0.01212089    -0.71100
O202        O  0.70431186  0.26022987  0.45573808    -0.74700
Al203      Al  0.71771277  0.26831029  0.50074825     1.49000
C204        C  0.71085133  0.28190471  0.43249302     0.92600
O205        O  0.64582261  0.33095699  0.45838101    -0.80900
O206        O  0.66233875  0.33886668  0.05985677    -0.74500
Al207      Al  0.68873056  0.33988633  0.47922028     1.90100
O208        O  0.61704616  0.32318866  0.00599910    -0.73600
O209        O  0.68081954  0.27195728  0.06936847    -0.73400
O210        O  0.63847687  0.25668079  0.01116650    -0.79100
O211        O  0.73424763  0.27701440  0.04806899    -0.77300
O212        O  0.68776579  0.30406112  0.00641545    -1.13400
O213        O  0.75643849  0.30062614  0.48806538    -0.72600
C214        C  0.75864556  0.33427080  0.49044089     0.98100
C215        C  0.61737035  0.33294497  0.47457943     0.94500
Al216      Al  0.65217349  0.29771730  0.03478154     1.55600
O217        O  0.71037835  0.31513153  0.43885515    -0.77200
C218        C  0.71429554  0.27067145  0.07305185     0.98700
C219        C  0.66052912  0.36921734  0.04655604     0.93600
O220        O  0.66836472  0.37375006  0.01491606    -0.82500
O221        O  0.37066154  0.41489507  0.38298654    -0.82000
C222        C  0.51219222  0.40221969  0.39037508     0.97400
O223        O  0.48617583  0.38367832  0.38192669    -0.71100
O224        O  0.42065671  0.36297165  0.38822119    -0.74700
Al225      Al  0.44517183  0.39899434  0.35991407     1.49000
C226        C  0.41138178  0.36403988  0.41977129     0.92600
O227        O  0.42805071  0.45771711  0.45678084    -0.80900
O228        O  0.44131060  0.50498495  0.40794939    -0.74500
Al229      Al  0.40312192  0.43605859  0.41675746     1.90100
O230        O  0.48232892  0.45243696  0.43892541    -0.73600
O231        O  0.46722348  0.48187100  0.34890884    -0.73400
O232        O  0.51234730  0.43497533  0.38302671    -0.79100
O233        O  0.46991239  0.42878736  0.32551573    -0.77300
O234        O  0.44017325  0.43392188  0.38982436    -1.13400
O235        O  0.40349961  0.41050253  0.33654583    -0.72600
C236        C  0.37391017  0.40814426  0.35095985     0.98100
C237        C  0.46106369  0.45886915  0.46252818     0.94500
Al238      Al  0.47334653  0.46635457  0.39407849     1.55600
O239        O  0.41335008  0.39245447  0.43654830    -0.77200
C240        C  0.47190548  0.46259005  0.32288922     0.98700
C241        C  0.40789470  0.50686775  0.40667418     0.93600
O242        O  0.39021466  0.47996050  0.39877892    -0.82500
O243        O  0.26168559  0.13611247  0.50417722    -0.82000
C244        C  0.34600560  0.26025090  0.00409770     0.97400
O245        O  0.31349392  0.26135276  0.01116755    -0.71100
O246        O  0.29099338  0.22432252  0.45635669    -0.74700
Al247      Al  0.27822224  0.21921597  0.50197483     1.49000
C248        C  0.28360355  0.20118178  0.43450612     0.92600
O249        O  0.34833820  0.15129297  0.46199812    -0.80900
O250        O  0.33708168  0.15376189  0.06253903    -0.74500
Al251      Al  0.30550643  0.14560735  0.48405673     1.90100
O252        O  0.38187579  0.16699972  0.00826664    -0.73600
O253        O  0.32003956  0.22140714  0.07056292    -0.73400
O254        O  0.36367201  0.23350598  0.01229188    -0.79100
O255        O  0.26687006  0.21986268  0.04786840    -0.77300
O256        O  0.31233256  0.18813714  0.00790906    -1.13400
O257        O  0.23876356  0.18742181  0.49080402    -0.72600
C258        C  0.23580463  0.15403574  0.49404086     0.98100
C259        C  0.37729708  0.15274270  0.47736086     0.94500
Al260      Al  0.34803303  0.19389282  0.03653960     1.55600
O261        O  0.28395442  0.16837203  0.44263001    -0.77200
C262        C  0.28670774  0.22573692  0.07314380     0.98700
C263        C  0.33790511  0.12321961  0.04954294     0.93600
O264        O  0.32868922  0.11813482  0.01836457    -0.82500
O265        O  0.62395399  0.06971249  0.37578014    -0.82000
C266        C  0.48206499  0.09030627  0.38930285     0.97400
O267        O  0.50881084  0.10823822  0.38202847    -0.71100
O268        O  0.57564991  0.12547495  0.38717674    -0.74700
Al269      Al  0.54872135  0.09179539  0.35804435     1.49000
C270        C  0.58723790  0.12238290  0.41790001     0.92600
O271        O  0.56798963  0.02897328  0.45138194    -0.80900
O272        O  0.54950457  0.98394051  0.40287369    -0.74500
Al273      Al  0.59247597  0.04955692  0.41058969     1.90100
O274        O  0.51302719  0.03750212  0.43641997    -0.73600
O275        O  0.52302059  0.01048518  0.34554126    -0.73400
O276        O  0.48134493  0.05759146  0.38182314    -0.79100
O277        O  0.52169418  0.06414916  0.32323632    -0.77300
O278        O  0.55380045  0.05544326  0.38623726    -1.13400
O279        O  0.58842501  0.07961804  0.33225542    -0.72600
C280        C  0.61898544  0.07868483  0.34456702     0.98100
C281        C  0.53519937  0.02917286  0.45866245     0.94500
Al282      Al  0.51930903  0.02458966  0.39091060     1.55600
O283        O  0.58727144  0.09283429  0.43263538    -0.77200
C284        C  0.51800136  0.03051074  0.32020143     0.98700
C285        C  0.58248133  0.97934326  0.39956096     0.93600
O286        O  0.60142243  0.00476903  0.39018514    -0.82500
O287        O  0.66723340  0.87111221  0.00761620    -0.82000
C288        C  0.65483893  0.72841767  0.01420439     0.97400
O289        O  0.63562034  0.76048053  0.50881560    -0.71100
O290        O  0.61671030  0.82116689  0.01617834    -0.74700
Al291      Al  0.64981842  0.80187905  0.48620419     1.49000
C292        C  0.61958732  0.83027461  0.04784084     0.92600
O293        O  0.71482044  0.81485475  0.07845899    -0.80900
O294        O  0.75829847  0.80065019  0.02699418    -0.74500
Al295      Al  0.69069862  0.83913040  0.03981912     1.90100
O296        O  0.70851729  0.75991313  0.06147552    -0.73600
O297        O  0.73038696  0.77871301  0.46934714    -0.73400
O298        O  0.68746626  0.72873008  0.00726148    -0.79100
O299        O  0.67614785  0.77638103  0.44953859    -0.77300
O300        O  0.68689526  0.80139397  0.01323092    -1.15000
O301        O  0.66036266  0.84328793  0.46182706    -0.72600
C302        C  0.65839252  0.87317363  0.47604151     0.98100
C303        C  0.71640059  0.78173355  0.08432254     0.94500
Al304      Al  0.71918326  0.76807216  0.01587326     1.55600
O305        O  0.64897286  0.82903625  0.06253538    -0.77200
C306        C  0.70931693  0.77306097  0.44503283     0.98700
C307        C  0.76024129  0.83439336  0.02604465     0.93600
O308        O  0.73320993  0.85216532  0.01909993    -0.82500
O309        O  0.76180448  0.63607558  0.25639754    -0.82000
C310        C  0.84182920  0.75932007  0.25356776     0.97400
O311        O  0.80887255  0.75961578  0.25877743    -0.71100
O312        O  0.79017516  0.72336258  0.20646514    -0.74700
Al313      Al  0.77720175  0.71974865  0.25214417     1.49000
C314        C  0.78224710  0.69970013  0.18540136     0.92600
O315        O  0.84728519  0.65288014  0.21333482    -0.80900
O316        O  0.83373138  0.65518244  0.31422311    -0.74500
Al317      Al  0.80506985  0.64622328  0.23580584     1.90100
O318        O  0.87909829  0.66649610  0.25883653    -0.73600
O319        O  0.81624716  0.72167062  0.32040032    -0.73400
O320        O  0.85976249  0.73295858  0.26214416    -0.79100
O321        O  0.76299626  0.71919020  0.29782693    -0.77300
O322        O  0.80894611  0.68641563  0.25877046    -1.13400
O323        O  0.73790846  0.68662819  0.24221039    -0.72600
C324        C  0.73548181  0.65313470  0.24618717     0.98100
C325        C  0.87647202  0.65434032  0.22816899     0.94500
Al326      Al  0.84463451  0.69385211  0.28698908     1.55600
O327        O  0.78275108  0.66721890  0.19424117    -0.77200
C328        C  0.78284414  0.72526447  0.32305227     0.98700
C329        C  0.83414058  0.62404443  0.30309095     0.93600
O330        O  0.82658206  0.61729628  0.27181123    -0.82500
O331        O  0.60601147  0.50722962  0.13099268    -0.82000
C332        C  0.48669977  0.59166855  0.12597264     0.97400
O333        O  0.48542444  0.55896513  0.13365623    -0.71100
O334        O  0.51989173  0.53834411  0.08114236    -0.74700
Al335      Al  0.52404384  0.52563997  0.12681412     1.49000
C336        C  0.54282808  0.52962169  0.05979518     0.92600
O337        O  0.59283975  0.59378027  0.08680010    -0.80900
O338        O  0.59041717  0.58249594  0.18782647    -0.74500
Al339      Al  0.59766086  0.55107636  0.10971840     1.90100
O340        O  0.57946085  0.62661687  0.13194938    -0.73600
O341        O  0.52348750  0.56582080  0.19434144    -0.73400
O342        O  0.51313191  0.60929198  0.13461011    -0.79100
O343        O  0.52576549  0.51188053  0.17263438    -0.77300
O344        O  0.55812589  0.55676170  0.13268212    -1.13400
O345        O  0.55527075  0.48463014  0.11646864    -0.72600
C346        C  0.58836979  0.48118634  0.12054647     0.98100
C347        C  0.59181526  0.62333677  0.10155304     0.94500
Al348      Al  0.55168892  0.59339653  0.16035139     1.55600
O349        O  0.57525884  0.52894063  0.06837585    -0.77200
C350        C  0.52076520  0.53210931  0.19792190     0.98700
C351        C  0.62109814  0.58315333  0.17595885     0.93600
O352        O  0.62734589  0.57283479  0.14530087    -0.82500
C353        C  0.67230940  0.65041503  0.22876728    -0.12500
C354        C  0.70456795  0.63303939  0.23305697     0.04500
C355        C  0.70816505  0.59787818  0.22001745    -0.07800
C356        C  0.68066920  0.58203795  0.20168220    -0.08500
C357        C  0.64887224  0.59966688  0.19705200    -0.03100
C358        C  0.64436839  0.63389009  0.21150854     0.03800
N359        N  0.61229039  0.65316386  0.20717801     0.66300
H360        H  0.66898073  0.67727459  0.23813907     0.15200
H361        H  0.68428455  0.55579027  0.19085521     0.14900
N362        N  0.74012136  0.57824129  0.22337542     0.74000
O363        O  0.58990278  0.65314522  0.23115451    -0.39500
O364        O  0.61033298  0.67650517  0.18403586    -0.39400
O365        O  0.74283900  0.55584062  0.24730657    -0.40100
O366        O  0.76068769  0.57620474  0.19794973    -0.40200
C367        C  0.65950428  0.68140118  0.05877960    -0.12500
C368        C  0.63887350  0.69919104  0.03428427     0.04500
C369        C  0.60229276  0.69249444  0.03334449    -0.07800
C370        C  0.58697781  0.66972631  0.05745203    -0.08500
C371        C  0.60738519  0.65299392  0.08255791    -0.03100
C372        C  0.64420126  0.65793220  0.08234303     0.03800
N373        N  0.66663674  0.63749766  0.10422923     0.66300
H374        H  0.68761602  0.68588394  0.05988154     0.15200
H375        H  0.55930065  0.66350762  0.05524135     0.14900
N376        N  0.58318974  0.70593911  0.50218504     0.74000
O377        O  0.67883446  0.60846967  0.09325200    -0.39500
O378        O  0.68071811  0.65200775  0.13007688    -0.39400
O379        O  0.58081382  0.68641199  0.47586502    -0.40100
O380        O  0.56093297  0.73035412  0.50658172    -0.40200
C381        C  0.74014666  0.76526028  0.35203721    -0.12500
C382        C  0.76550407  0.73812851  0.35486206     0.04500
C383        C  0.77017600  0.72140839  0.38683389    -0.07800
C384        C  0.75018421  0.73235340  0.41526795    -0.08500
C385        C  0.72516328  0.75977615  0.41263541    -0.03100
C386        C  0.72028402  0.77641326  0.38060173     0.03800
N387        N  0.69728693  0.80614830  0.37713407     0.66300
H388        H  0.73605444  0.77821724  0.32746868     0.15200
H389        H  0.75440232  0.71940073  0.43982264     0.14900
N390        N  0.79393820  0.69234081  0.39059803     0.74000
O391        O  0.70978292  0.83699629  0.37976158    -0.39500
O392        O  0.66749476  0.80193222  0.36341688    -0.39400
O393        O  0.82294485  0.69724607  0.40563518    -0.40100
O394        O  0.78266163  0.66115020  0.38670767    -0.40200
C395        C  0.72931848  0.71981166  0.15723684    -0.12500
C396        C  0.76547187  0.71290738  0.15425333     0.04500
C397        C  0.78549614  0.73258065  0.13062520    -0.07800
C398        C  0.76939882  0.75900758  0.11094054    -0.08500
C399        C  0.73335395  0.76622517  0.11433023    -0.03100
C400        C  0.71324581  0.74627830  0.13760310     0.03800
N401        N  0.67663172  0.75336302  0.14219918     0.66300
H402        H  0.71394730  0.70631588  0.17670794     0.15200
H403        H  0.78471980  0.77258627  0.09147432     0.14900
N404        N  0.82210441  0.72548037  0.12597236     0.74000
O405        O  0.65424305  0.73610595  0.12505081    -0.39500
O406        O  0.66671848  0.77142686  0.16781584    -0.39400
O407        O  0.83173852  0.70585453  0.10135350    -0.40100
O408        O  0.84456785  0.74441448  0.14125080    -0.40200
C409        C  0.59829654  0.94908672  0.45275957    -0.12500
C410        C  0.60001913  0.94929932  0.41676997     0.04500
C411        C  0.62328002  0.92573643  0.40017370    -0.07800
C412        C  0.64354546  0.90208708  0.41997381    -0.08500
C413        C  0.64173154  0.90221416  0.45628176    -0.03100
C414        C  0.61870877  0.92622205  0.47249480     0.03800
N415        N  0.61384899  0.92651126  0.50893895     0.66300
H416        H  0.58184986  0.96769503  0.46618034     0.15200
H417        H  0.66627647  0.88343285  0.90796522     0.14900
N418        N  0.62560572  0.92439660  0.36348037     0.74000
O419        O  0.63288057  0.94647798  0.52718803    -0.39500
O420        O  0.58512941  0.91542778  0.52102750    -0.39400
O421        O  0.65168556  0.93830813  0.34870896    -0.40100
O422        O  0.60719540  0.90211966  0.34724320    -0.40200
C423        C  0.43651843  0.08561333  0.43480057    -0.12500
C424        C  0.45384502  0.10667630  0.41039641     0.04500
C425        C  0.44729944  0.14358882  0.41018934    -0.07800
C426        C  0.42464229  0.15870139  0.43464227    -0.08500
C427        C  0.40755040  0.13762330  0.45899426    -0.03100
C428        C  0.41308203  0.10058402  0.45855166     0.03800
N429        N  0.39362316  0.07750561  0.48062555     0.66300
H430        H  0.44114443  0.05729450  0.43553280     0.15200
H431        H  0.41870130  0.18675714  0.43324763     0.14900
N432        N  0.46064065  0.16559131  0.38335219     0.74000
O433        O  0.36455937  0.06538963  0.47026122    -0.39500
O434        O  0.40934121  0.06194816  0.50490574    -0.39400
O435        O  0.44195010  0.17072588  0.35697565    -0.40100
O436        O  0.48538078  0.18675352  0.38982196    -0.40200
C437        C  0.50393495  0.46211059  0.26698709    -0.12500
C438        C  0.48241045  0.48033248  0.29017875     0.04500
C439        C  0.47470405  0.51655718  0.28345275    -0.07800
C440        C  0.48833247  0.53339849  0.25410262    -0.08500
C441        C  0.50984839  0.51508012  0.23090098    -0.03100
C442        C  0.51802721  0.47905326  0.23804152     0.03800
N443        N  0.54175876  0.45935840  0.21688676     0.66300
H444        H  0.51113980  0.43481228  0.27202678     0.15200
H445        H  0.48139712  0.56077534  0.24913371     0.14900
N446        N  0.45307775  0.53689886  0.30611746     0.74000
O447        O  0.57395869  0.45859602  0.22475151    -0.39500
O448        O  0.52959549  0.43594719  0.19696289    -0.39400
O449        O  0.46744466  0.55923779  0.32578928    -0.40100
O450        O  0.42052297  0.53921166  0.30018294    -0.40200
C451        C  0.47622708  0.51253464  0.49323416    -0.12500
C452        C  0.47695301  0.47543534  0.49286952     0.04500
C453        C  0.50040020  0.45840615  0.01050537    -0.07800
C454        C  0.52658674  0.47622995  0.02900113    -0.08500
C455        C  0.52858525  0.51327111  0.02865380    -0.03100
C456        C  0.50245294  0.53192818  0.51006365     0.03800
N457        N  0.50184148  0.56970324  0.50802618     0.66300
H458        H  0.45683985  0.52662258  0.47797203     0.15200
H459        H  0.54407596  0.46110160  0.04547319     0.14900
N460        N  0.50006793  0.42058584  0.01078329     0.74000
O461        O  0.51760602  0.58473947  0.48351305    -0.39500
O462        O  0.48582200  0.59000501  0.02119490    -0.39400
O463        O  0.52375802  0.40396155  0.99477092    -0.40100
O464        O  0.48250284  0.40469553  0.03355055    -0.40200
C465        C  0.36128280  0.34331861  0.45401445    -0.12500
C466        C  0.39288049  0.33470606  0.43705275     0.04500
C467        C  0.40679957  0.30046150  0.44067247    -0.07800
C468        C  0.39046754  0.27653978  0.46309926    -0.08500
C469        C  0.35930838  0.28550471  0.48097650    -0.03100
C470        C  0.34411293  0.31900454  0.47522772     0.03800
N471        N  0.31142294  0.32895358  0.49059118     0.66300
H472        H  0.34985944  0.36945647  0.45091943     0.15200
H473        H  0.40180082  0.25031740  0.46564898     0.14900
N474        N  0.43718306  0.28938292  0.42192209     0.74000
O475        O  0.32493670  0.34930007  0.02775571    -0.39500
O476        O  0.28379479  0.32830205  0.47257212    -0.39400
O477        O  0.46544187  0.28371890  0.43803052    -0.40100
O478        O  0.43311195  0.27577944  0.39246839    -0.40200
C479        C  0.59731550  0.38329250  0.43925064    -0.12500
C480        C  0.58857395  0.35182778  0.45673002     0.04500
C481        C  0.55447512  0.33826289  0.45336584    -0.07800
C482        C  0.53078440  0.35452658  0.43062139    -0.08500
C483        C  0.53978368  0.38549579  0.41218573    -0.03100
C484        C  0.57311853  0.40065523  0.41791363     0.03800
N485        N  0.58287458  0.43364852  0.40272322     0.66300
H486        H  0.62331895  0.39462368  0.44230354     0.15200
H487        H  0.50467710  0.34337944  0.42829414     0.14900
N488        N  0.54479756  0.31018803  0.97466429     0.74000
O489        O  0.57840863  0.46189129  0.41965711    -0.39500
O490        O  0.60336347  0.43373732  0.37717810    -0.39400
O491        O  0.52685278  0.31546890  0.00152428    -0.40100
O492        O  0.54555180  0.27962332  0.96147230    -0.40200
C493        C  0.63825006  0.45904553  0.08574294    -0.12500
C494        C  0.60805709  0.45092958  0.10528144     0.04500
C495        C  0.59661422  0.41552343  0.10641775    -0.07800
C496        C  0.61519920  0.38934893  0.08818467    -0.08500
C497        C  0.64442161  0.39786297  0.06748051    -0.03100
C498        C  0.65593069  0.43317290  0.06646053     0.03800
N499        N  0.68541291  0.44335738  0.04603842     0.66300
H500        H  0.64742920  0.48614605  0.08405732     0.15200
H501        H  0.60584212  0.36225649  0.08923918     0.14900
N502        N  0.56667857  0.40542839  0.12621074     0.74000
O503        O  0.68017950  0.45564470  0.01627736    -0.39500
O504        O  0.71461706  0.44872390  0.06057417    -0.39400
O505        O  0.53761895  0.40099177  0.11110828    -0.40100
O506        O  0.57148591  0.39135355  0.15527881    -0.40200
C507        C  0.63651053  0.14338721  0.45382055    -0.12500
C508        C  0.60468420  0.15147859  0.43697311     0.04500
C509        C  0.58938006  0.18486619  0.44246090    -0.07800
C510        C  0.60524184  0.20880534  0.46533187    -0.08500
C511        C  0.63700600  0.20074523  0.48245755    -0.03100
C512        C  0.65295524  0.16766911  0.47591069     0.03800
N513        N  0.68573179  0.15809345  0.49126458     0.66300
H514        H  0.64878316  0.11777400  0.44982146     0.15200
H515        H  0.59423485  0.23129489  0.97366618     0.14900
N516        N  0.55734756  0.19472897  0.42599105     0.74000
O517        O  0.68572602  0.13958693  0.51828049    -0.39500
O518        O  0.71345807  0.16004913  0.47352845    -0.39400
O519        O  0.52999363  0.19802904  0.44410101    -0.40100
O520        O  0.55874095  0.20978883  0.39703878    -0.40200
C521        C  0.35736697  0.53042845  0.43927419    -0.12500
C522        C  0.38847618  0.53753661  0.42075194     0.04500
C523        C  0.40095425  0.57254077  0.41928103    -0.07800
C524        C  0.38261064  0.59938373  0.43646102    -0.08500
C525        C  0.35251383  0.59183859  0.45610272    -0.03100
C526        C  0.33968207  0.55711256  0.45723893     0.03800
N527        N  0.30659586  0.54484990  0.97020797     0.66300
H528        H  0.34734194  0.50365512  0.44105615     0.15200
H529        H  0.39279762  0.62616031  0.43552033     0.14900
N530        N  0.43165249  0.58159290  0.40013992     0.74000
O531        O  0.27776318  0.54354918  0.95415658    -0.39500
O532        O  0.30934881  0.52942306  0.99887749    -0.39400
O533        O  0.42796638  0.59822924  0.37222623    -0.40100
O534        O  0.46091056  0.58273223  0.41545301    -0.40200
C535        C  0.43296256  0.66044329  0.07573216    -0.12500
C536        C  0.40960041  0.63865297  0.05785721     0.04500
C537        C  0.41181691  0.60159068  0.06222494    -0.07800
C538        C  0.43584407  0.58711348  0.08569349    -0.08500
C539        C  0.45907190  0.60879058  0.10429192    -0.03100
C540        C  0.45816403  0.64597469  0.09808731     0.03800
N541        N  0.48263322  0.66965529  0.11390650     0.66300
H542        H  0.43121870  0.68896515  0.07284725     0.15200
H543        H  0.43707126  0.55855847  0.08841034     0.14900
N544        N  0.39043612  0.57813048  0.04230628     0.74000
O545        O  0.50898206  0.67977934  0.09685737    -0.39500
O546        O  0.47309626  0.68748714  0.13979383    -0.39400
O547        O  0.39351562  0.56155932  0.53011013    -0.40100
O548        O  0.36456725  0.56306878  0.05634087    -0.40200
C549        C  0.83032782  0.56269452  0.32429234    -0.12500
C550        C  0.84599934  0.59592444  0.32646384     0.04500
C551        C  0.87432536  0.60128153  0.34962348    -0.07800
C552        C  0.88836873  0.57253346  0.36766100    -0.08500
C553        C  0.87397742  0.53868516  0.36395708    -0.03100
C554        C  0.84344362  0.53425889  0.34325655     0.03800
N555        N  0.82686498  0.50059960  0.33884059     0.66300
H556        H  0.80817179  0.55855689  0.30717365     0.15200
H557        H  0.91174937  0.57633514  0.38320151     0.14900
N558        N  0.89110538  0.63498200  0.35297665     0.74000
O559        O  0.80230780  0.49202172  0.35899098    -0.39500
O560        O  0.82963870  0.48480092  0.31027710    -0.39400
O561        O  0.91924480  0.64084108  0.33676301    -0.40100
O562        O  0.88275203  0.65497370  0.37774891    -0.40200
C563        C  0.82212380  0.33532308  0.47451931    -0.12500
C564        C  0.79038905  0.35369247  0.47899611     0.04500
C565        C  0.78820345  0.38952314  0.46774878    -0.07800
C566        C  0.81637913  0.40502630  0.45063343    -0.08500
C567        C  0.84714904  0.38611267  0.44480508    -0.03100
C568        C  0.85057959  0.35130891  0.45776298     0.03800
N569        N  0.88158485  0.33080649  0.45164803     0.66300
H570        H  0.82572275  0.31070255  0.98225678     0.15200
H571        H  0.81375895  0.43178934  0.44085101     0.14900
N572        N  0.75687927  0.41015311  0.47110348     0.74000
O573        O  0.90637495  0.33097192  0.97284153    -0.39500
O574        O  0.88208562  0.30922400  0.42677413    -0.39400
O575        O  0.75591449  0.43426314  0.49363043    -0.40100
O576        O  0.73573648  0.41153657  0.44607255    -0.40200
C577        C  0.95176311  0.64189859  0.16623463    -0.12500
C578        C  0.94965543  0.60522346  0.15889513     0.04500
C579        C  0.92453230  0.58497008  0.17694683    -0.07800
C580        C  0.90306414  0.60134235  0.20180619    -0.08500
C581        C  0.90576836  0.63777455  0.20920346    -0.03100
C582        C  0.93012628  0.65811402  0.19082264     0.03800
N583        N  0.93276664  0.69544011  0.19615660     0.66300
H584        H  0.97070929  0.65840384  0.15302909     0.15200
H585        H  0.88306345  0.58570089  0.21456360     0.14900
N586        N  0.91985490  0.54806846  0.17011908     0.74000
O587        O  0.95770226  0.70720520  0.21426893    -0.39500
O588        O  0.91684007  0.71616944  0.17599718    -0.39400
O589        O  0.92825279  0.52577216  0.19284919    -0.40100
O590        O  0.89973531  0.53869671  0.14591034    -0.40200
C591        C  0.02933470  0.48656290  0.02431362    -0.12500
C592        C  0.01161332  0.51774531  0.03451381     0.04500
C593        C  0.98146136  0.52812891  0.01622305    -0.07800
C594        C  0.99444709  0.51343019  0.47346758    -0.08500
C595        C  0.98817566  0.47636811  0.47497214    -0.03100
C596        C  0.99488974  0.45901836  0.50625081     0.03800
N597        N  0.98787903  0.42211242  0.51038361     0.66300
H598        H  0.05264648  0.47817185  0.03816461     0.15200
H599        H  0.98972271  0.52792819  0.44987464     0.14900
N600        N  0.96200623  0.55900076  0.02584036     0.74000
O601        O  0.01291704  0.40026077  0.50806068    -0.39500
O602        O  0.95970722  0.41271061  0.52486741    -0.39400
O603        O  0.96667777  0.58743806  0.00945478    -0.40100
O604        O  0.93515525  0.55578537  0.04464416    -0.40200
C605        C  0.99302785  0.53532275  0.25981062    -0.12500
C606        C  0.00825894  0.51222176  0.23591749     0.04500
C607        C  0.99237978  0.47866700  0.23061094    -0.07800
C608        C  0.96295583  0.46857127  0.24983860    -0.08500
C609        C  0.95021251  0.49012760  0.27622259    -0.03100
C610        C  0.96425413  0.52461544  0.27976616     0.03800
N611        N  0.94910867  0.54935298  0.30331644     0.66300
H612        H  0.00225912  0.56242077  0.26168519     0.15200
H613        H  0.95222725  0.44221100  0.24641504     0.14900
N614        N  0.00561617  0.45457063  0.20526676     0.74000
O615        O  0.96616813  0.55821577  0.32984290    -0.39500
O616        O  0.92465621  0.56920100  0.29277636    -0.39400
O617        O  0.02910112  0.43259664  0.21374490    -0.40100
O618        O  0.98808813  0.44923696  0.17814341    -0.40200
C619        C  0.17157108  0.63946842  0.03719429    -0.12500
C620        C  0.20549111  0.62926088  0.04661775     0.04500
C621        C  0.20998025  0.60373507  0.07306160    -0.07800
C622        C  0.18071623  0.59043921  0.09056831    -0.08500
C623        C  0.14672970  0.60100609  0.08155947    -0.03100
C624        C  0.14223712  0.62534549  0.05399202     0.03800
N625        N  0.10821830  0.63750654  0.04370659     0.66300
H626        H  0.16784189  0.65916909  0.01725099     0.15200
H627        H  0.18465233  0.57176443  0.11137990     0.14900
N628        N  0.24412764  0.59215993  0.08369864     0.74000
O629        O  0.09652189  0.66622006  0.05590450    -0.39500
O630        O  0.09434224  0.62473940  0.01688877    -0.39400
O631        O  0.25717086  0.60412420  0.11125354    -0.40100
O632        O  0.25661027  0.56046649  0.55252187    -0.40200
C633        C  0.28297070  0.38681584  0.31580096    -0.12500
C634        C  0.28998461  0.35687607  0.29505633     0.04500
C635        C  0.32501344  0.34517649  0.29190571    -0.07800
C636        C  0.35191779  0.36339746  0.30927974    -0.08500
C637        C  0.34458406  0.39259076  0.33085357    -0.03100
C638        C  0.30964093  0.40426037  0.33397813     0.03800
N639        N  0.30068902  0.43392474  0.35515870     0.66300
H640        H  0.25622129  0.39618757  0.31901438     0.15200
H641        H  0.37867802  0.35379249  0.30684971     0.14900
N642        N  0.33391267  0.31524689  0.27107173     0.74000
O643        O  0.29941161  0.46438105  0.34187379    -0.39500
O644        O  0.28572809  0.42865221  0.38368377    -0.39400
O645        O  0.34801878  0.32026178  0.24208434    -0.40100
O646        O  0.33641817  0.28515729  0.28496771    -0.40200
C647        C  0.23913450  0.26080909  0.10097777    -0.12500
C648        C  0.26945820  0.23949871  0.10472947     0.04500
C649        C  0.28049261  0.23024996  0.13801985    -0.07800
C650        C  0.26130455  0.24215835  0.16658865    -0.08500
C651        C  0.23079488  0.26322288  0.16293056    -0.03100
C652        C  0.21985613  0.27269472  0.12958275     0.03800
N653        N  0.19035529  0.29551393  0.12421596     0.66300
H654        H  0.23034379  0.26850936  0.07551539     0.15200
H655        H  0.27007057  0.23418423  0.19197129     0.14900
N656        N  0.30967731  0.20701218  0.14329648     0.74000
O657        O  0.19536171  0.32844123  0.12150543    -0.39500
O658        O  0.16178940  0.28246626  0.11360957    -0.39400
O659        O  0.33842938  0.21950014  0.15404836    -0.40100
O660        O  0.30444728  0.17403742  0.14480066    -0.40200
C661        C  0.26596440  0.26738984  0.36602888    -0.12500
C662        C  0.22922967  0.26586103  0.36460074     0.04500
C663        C  0.21168952  0.23847610  0.38226233    -0.07800
C664        C  0.23092594  0.21330427  0.40095597    -0.08500
C665        C  0.26768345  0.21525318  0.40298722    -0.03100
C666        C  0.28518852  0.24248047  0.38493679     0.03800
N667        N  0.32259567  0.24558848  0.38615821     0.66300
H668        H  0.27997017  0.28700361  0.35099000     0.15200
H669        H  0.21685278  0.19410141  0.41642507     0.14900
N670        N  0.17416968  0.23735722  0.38327837     0.74000
O671        O  0.34081419  0.22982989  0.36368407    -0.39500
O672        O  0.33612009  0.27076623  0.40293433    -0.39400
O673        O  0.15808288  0.21337300  0.36703653    -0.40100
O674        O  0.15827986  0.25420541  0.40668114    -0.40200
C675        C  0.05567859  0.36188857  0.36782936    -0.12500
C676        C  0.03776909  0.38979218  0.35173973     0.04500
C677        C  0.04430858  0.39639298  0.31670541    -0.07800
C678        C  0.06852090  0.37587625  0.29834203    -0.08500
C679        C  0.08723177  0.34871733  0.31451439    -0.03100
C680        C  0.08073802  0.34177401  0.34976388     0.03800
N681        N  0.09895314  0.31413940  0.36747353     0.66300
H682        H  0.04992730  0.35547830  0.39442505     0.15200
H683        H  0.07332843  0.38187647  0.27146029     0.14900
N684        N  0.02344287  0.42107741  0.29833185     0.74000
O685        O  0.12539702  0.32184934  0.38563279    -0.39500
O686        O  0.08383869  0.28476228  0.37195571    -0.39400
O687        O  0.03204934  0.45333850  0.29738512    -0.40100
O688        O  0.99533481  0.41061573  0.28446867    -0.40200
C689        C  0.12803012  0.46609946  0.19805237    -0.12500
C690        C  0.10512867  0.45706132  0.17078942     0.04500
C691        C  0.10126571  0.42118013  0.16203958    -0.07800
C692        C  0.12034452  0.39531297  0.18016632    -0.08500
C693        C  0.14285543  0.40425695  0.20787304    -0.03100
C694        C  0.14637511  0.44023450  0.21680800     0.03800
N695        N  0.16868788  0.45114999  0.24446780     0.66300
H696        H  0.13115963  0.49359454  0.20548266     0.15200
H697        H  0.11674404  0.36782758  0.17293236     0.14900
N698        N  0.07886512  0.41052922  0.13439026     0.74000
O699        O  0.19908500  0.46261973  0.23782792    -0.39500
O700        O  0.15542225  0.45717425  0.27368577    -0.39400
O701        O  0.09215406  0.40423580  0.10523840    -0.40100
O702        O  0.04840713  0.39925043  0.14104013    -0.40200
C703        C  0.70940497  0.09905118  0.30805457    -0.12500
C704        C  0.70207898  0.12882872  0.28735907     0.04500
C705        C  0.66685766  0.13953142  0.28333145    -0.07800
C706        C  0.64017242  0.12117977  0.30065466    -0.08500
C707        C  0.64787132  0.09287161  0.32307212    -0.03100
C708        C  0.68289337  0.08145799  0.32617791     0.03800
N709        N  0.69215923  0.05232066  0.34777065     0.66300
H710        H  0.73627857  0.09019926  0.31155196     0.15200
H711        H  0.61332016  0.13036592  0.29778342     0.14900
N712        N  0.65742877  0.16846819  0.26159397     0.74000
O713        O  0.69471789  0.02175092  0.33476048    -0.39500
O714        O  0.70590573  0.05836456  0.37677439    -0.39400
O715        O  0.64172281  0.16195104  0.23365124    -0.40100
O716        O  0.65492898  0.19905786  0.27456289    -0.40200
C717        C  0.71477604  0.23221050  0.12474395    -0.12500
C718        C  0.73115850  0.25858771  0.10537715     0.04500
C719        C  0.76569697  0.26930674  0.11456786    -0.07800
C720        C  0.78285261  0.25369706  0.14268210    -0.08500
C721        C  0.76637083  0.22740640  0.16212426    -0.03100
C722        C  0.73205908  0.21637743  0.15259090     0.03800
N723        N  0.71458030  0.18841130  0.17036247     0.66300
H724        H  0.68888897  0.22280402  0.11746436     0.15200
H725        H  0.80871786  0.26309373  0.15001995     0.14900
N726        N  0.78343663  0.29681465  0.09629902     0.74000
O727        O  0.69006089  0.19603678  0.19093982    -0.39500
O728        O  0.71702629  0.15717539  0.15892236    -0.39400
O729        O  0.78221045  0.32809078  0.10780940    -0.40100
O730        O  0.80672623  0.28867263  0.07452144    -0.40200
C731        C  0.72781082  0.21115610  0.36767348    -0.12500
C732        C  0.76438516  0.21363472  0.36459557     0.04500
C733        C  0.78178610  0.24232460  0.38066639    -0.07800
C734        C  0.76262865  0.26821099  0.39849183    -0.08500
C735        C  0.72606507  0.26582207  0.40150348    -0.03100
C736        C  0.70864172  0.23697497  0.38568196     0.03800
N737        N  0.67131848  0.23353766  0.38776546     0.66300
H738        H  0.71372867  0.19059587  0.35382961     0.15200
H739        H  0.77673503  0.28881755  0.41224655     0.14900
N740        N  0.81913409  0.24562201  0.37881662     0.74000
O741        O  0.65228421  0.25046545  0.36685038    -0.39500
O742        O  0.65846956  0.20738784  0.40343633    -0.39400
O743        O  0.83227579  0.27067926  0.36172752    -0.40100
O744        O  0.83788206  0.22984728  0.40080188    -0.40200
C745        C  0.83833935  0.31474985  0.28918453    -0.12500
C746        C  0.85645918  0.28264300  0.28540402     0.04500
C747        C  0.88903178  0.27856584  0.30305587    -0.07800
C748        C  0.90262887  0.30601606  0.32341705    -0.08500
C749        C  0.88507545  0.33825940  0.32616451    -0.03100
C750        C  0.85235665  0.34249651  0.30896805     0.03800
N751        N  0.83239637  0.37448554  0.31203196     0.66300
H752        H  0.81310657  0.31846744  0.27671824     0.15200
H753        H  0.92771242  0.30243826  0.33622785     0.14900
N754        N  0.90949354  0.24709600  0.30008079     0.74000
O755        O  0.83429321  0.39736541  0.28846113    -0.39500
O756        O  0.80696791  0.37565002  0.33287736    -0.39400
O757        O  0.93600079  0.24758653  0.28060362    -0.40100
O758        O  0.90758168  0.22399800  0.32345075    -0.40200
C759        C  0.81801337  0.90292374  0.07056054    -0.12500
C760        C  0.84929614  0.88419983  0.07433566     0.04500
C761        C  0.85250361  0.85004268  0.05956923    -0.07800
C762        C  0.82387410  0.83487453  0.04219688    -0.08500
C763        C  0.79200695  0.85333697  0.03881080    -0.03100
C764        C  0.78960329  0.88819371  0.05279211     0.03800
N765        N  0.75779505  0.90833789  0.05152723     0.66300
H766        H  0.81537706  0.92902294  0.08200689     0.15200
H767        H  0.82620551  0.80803956  0.03246283     0.14900
N768        N  0.88357972  0.82924418  0.06447861     0.74000
O769        O  0.73767419  0.90843323  0.07736385    -0.39500
O770        O  0.75466692  0.93243788  0.02926649    -0.39400
O771        O  0.88433733  0.80628315  0.08804669    -0.40100
O772        O  0.90657575  0.82828105  0.04109108    -0.40200
C773        C  0.84095326  0.80351465  0.20671625    -0.12500
C774        C  0.85940148  0.78749389  0.23370932     0.04500
C775        C  0.89590281  0.79386615  0.23700445    -0.07800
C776        C  0.91333386  0.81487216  0.21276774    -0.08500
C777        C  0.89499105  0.83033674  0.18542140    -0.03100
C778        C  0.85819902  0.82525333  0.18302109     0.03800
N779        N  0.83743728  0.84356060  0.15805059     0.66300
H780        H  0.81300893  0.79880156  0.20362900     0.15200
H781        H  0.94098856  0.82076924  0.21642481     0.14900
N782        N  0.91514031  0.78129529  0.26615557     0.74000
O783        O  0.82612255  0.82658090  0.13232990    -0.39500
O784        O  0.82166148  0.87153656  0.16705138    -0.39400
O785        O  0.93724082  0.75666272  0.26235922    -0.40100
O786        O  0.91617140  0.80001528  0.29310098    -0.40200
C787        C  0.85364916  0.02449966  0.18228668    -0.12500
C788        C  0.88293893  0.03203953  0.16138456     0.04500
C789        C  0.89325997  0.06738629  0.15696642    -0.07800
C790        C  0.87541669  0.09435706  0.17486028    -0.08500
C791        C  0.84746179  0.08651062  0.19760456    -0.03100
C792        C  0.83630110  0.05116914  0.20069598     0.03800
N793        N  0.80801440  0.04167099  0.22300379     0.66300
H794        H  0.84538477  0.99732362  0.18612563     0.15200
H795        H  0.88437920  0.12142486  0.17196194     0.14900
N796        N  0.92185905  0.07607706  0.13467121     0.74000
O797        O  0.77757086  0.03788742  0.21059661    -0.39500
O798        O  0.81488066  0.02885967  0.25223574    -0.39400
O799        O  0.91889126  0.07124239  0.10262283    -0.40100
O800        O  0.95160095  0.08319272  0.14731186    -0.40200
C801        C  0.10673227  0.71689229  0.21045501    -0.12500
C802        C  0.13472761  0.70586731  0.23189521     0.04500
C803        C  0.14477178  0.67001226  0.23113105    -0.07800
C804        C  0.12558738  0.64589005  0.21108490    -0.08500
C805        C  0.09695697  0.65671467  0.19047698    -0.03100
C806        C  0.08820999  0.69287137  0.18954930     0.03800
N807        N  0.06023786  0.70559783  0.16835637     0.66300
H808        H  0.09939996  0.74460620  0.20953247     0.15200
H809        H  0.13344621  0.61827173  0.21143378     0.14900
N810        N  0.17405708  0.65743442  0.25064635     0.74000
O811        O  0.02992535  0.70911594  0.18111208    -0.39500
O812        O  0.06752028  0.72122166  0.14057396    -0.39400
O813        O  0.16862470  0.64087986  0.27832331    -0.40100
O814        O  0.20374392  0.65506906  0.23630597    -0.40200
C815        C  0.26070470  0.73837892  0.35518747    -0.12500
C816        C  0.22644034  0.75268677  0.35816739     0.04500
C817        C  0.21134367  0.75515398  0.39114045    -0.07800
C818        C  0.23070271  0.74398910  0.41996050    -0.08500
C819        C  0.26526642  0.73037382  0.41687696    -0.03100
C820        C  0.28011290  0.72760961  0.38388588     0.03800
N821        N  0.31452034  0.71333116  0.37870988     0.66300
H822        H  0.27295922  0.73554538  0.33015298     0.15200
H823        H  0.21865377  0.74666807  0.44510451     0.14900
N824        N  0.17716364  0.77003732  0.39618563     0.74000
O825        O  0.31784517  0.68074362  0.37209577    -0.39500
O826        O  0.33951469  0.73409043  0.37180972    -0.39400
O827        O  0.15147527  0.74962661  0.40142728    -0.40100
O828        O  0.17440229  0.80237762  0.40409662    -0.40200
C829        C  0.21506280  0.74157859  0.14493702    -0.12500
C830        C  0.23211683  0.77240994  0.15635716     0.04500
C831        C  0.26746502  0.77764295  0.14699333    -0.07800
C832        C  0.28534081  0.75131534  0.12838741    -0.08500
C833        C  0.26848601  0.71989662  0.11788557    -0.03100
C834        C  0.23286249  0.71530216  0.12657467     0.03800
N835        N  0.21360600  0.68479625  0.11602495     0.66300
H836        H  0.18810771  0.73658038  0.15266321     0.15200
H837        H  0.31198762  0.75656246  0.11987536     0.14900
N838        N  0.28583195  0.80921470  0.15622479     0.74000
O839        O  0.21337305  0.65828659  0.13574081    -0.39500
O840        O  0.18828895  0.68902706  0.09543636    -0.39400
O841        O  0.31456581  0.80651765  0.17220708    -0.40100
O842        O  0.27937668  0.83735985  0.13989969    -0.40200
C843        C  0.03325565  0.85813802  0.18553555    -0.12500
C844        C  0.04202544  0.88603201  0.16295078     0.04500
C845        C  0.07647416  0.89951124  0.16377664    -0.07800
C846        C  0.10159782  0.88381805  0.18534457    -0.08500
C847        C  0.09311348  0.85518427  0.20709193    -0.03100
C848        C  0.05818159  0.84302496  0.20774900     0.03800
N849        N  0.04762489  0.81479540  0.22986085     0.66300
H850        H  0.00658253  0.84808717  0.18630242     0.15200
H851        H  0.12819144  0.89410080  0.18490808     0.14900
N852        N  0.08684916  0.92823936  0.14220654     0.74000
O853        O  0.03419975  0.82222827  0.25870201    -0.39500
O854        O  0.04250770  0.78446241  0.21709982    -0.39400
O855        O  0.09005008  0.95877444  0.15514281    -0.40100
O856        O  0.10095197  0.92162320  0.11349184    -0.40200
C857        C  0.08542184  0.17950171  0.30998965    -0.12500
C858        C  0.10674609  0.15297118  0.32375464     0.04500
C859        C  0.14255971  0.15142406  0.31406777    -0.07800
C860        C  0.15666473  0.17698757  0.29197061    -0.08500
C861        C  0.13560964  0.20409860  0.27839937    -0.03100
C862        C  0.09925511  0.20465041  0.28714903     0.03800
N863        N  0.07558210  0.22980465  0.27236610     0.66300
H864        H  0.05760197  0.17997320  0.31601929     0.15200
H865        H  0.18452473  0.17603391  0.28620764     0.14900
N866        N  0.16539371  0.12465872  0.32737014     0.74000
O867        O  0.05871336  0.22142171  0.24556915    -0.39500
O868        O  0.06538517  0.25589442  0.29015009    -0.39400
O869        O  0.17290275  0.09826948  0.30873580    -0.40100
O870        O  0.18478066  0.13197240  0.35278476    -0.40200
C871        C  0.14494624  0.12893531  0.46145184    -0.12500
C872        C  0.15323584  0.10067771  0.43901919     0.04500
C873        C  0.18835728  0.08931358  0.43653040    -0.07800
C874        C  0.21415984  0.10588878  0.45657126    -0.08500
C875        C  0.20604395  0.13484189  0.47817656    -0.03100
C876        C  0.17102834  0.14648736  0.48035620     0.03800
N877        N  0.16145337  0.17606123  0.50138597     0.66300
H878        H  0.11811994  0.13846650  0.46336773     0.15200
H879        H  0.24112849  0.09701185  0.45390916     0.14900
N880        N  0.19843008  0.06130250  0.41373515     0.74000
O881        O  0.15831770  0.20620153  0.48771357    -0.39500
O882        O  0.15058618  0.18801475  0.02505681    -0.39400
O883        O  0.21256605  0.06884492  0.38529846    -0.40100
O884        O  0.20137847  0.03024252  0.42533508    -0.40200
C885        C  0.02224999  0.98066480  0.98782900    -0.12500
C886        C  0.01535552  0.01971149  0.48027804     0.04500
C887        C  0.98672894  0.03224739  0.49971439    -0.07800
C888        C  0.97596900  0.01076669  0.03456894    -0.08500
C889        C  0.98545140  0.97469892  0.03834459    -0.03100
C890        C  0.00868291  0.95968210  0.01431324     0.03800
N891        N  0.01928755  0.92343871  0.01651089     0.66300
H892        H  0.05163976  0.97592956  0.47349832     0.15200
H893        H  0.95806050  0.02310527  0.05269433     0.14900
N894        N  0.96938574  0.06466360  0.49125949     0.74000
O895        O  0.00370140  0.90060662  0.99828750    -0.39500
O896        O  0.04871847  0.91590889  0.02963874    -0.39400
O897        O  0.94141943  0.06356710  0.47380459    -0.40100
O898        O  0.97641133  0.09225457  0.50832401    -0.40200
C899        C  0.98717959  0.02210719  0.27231419    -0.12500
C900        C  0.02184123  0.01012896  0.27905737     0.04500
C901        C  0.03206778  0.97682725  0.26619463    -0.07800
C902        C  0.00784519  0.95627910  0.24779736    -0.08500
C903        C  0.97351205  0.96859484  0.24076072    -0.03100
C904        C  0.96282684  0.00108834  0.25463068     0.03800
N905        N  0.92747177  0.01322129  0.25047656     0.66300
H906        H  0.97810016  0.04700881  0.28318521     0.15200
H907        H  0.01683662  0.93156158  0.23644852     0.14900
N908        N  0.06663451  0.96314669  0.27173369     0.74000
O909        O  0.90258932  0.99698057  0.26501124    -0.39500
O910        O  0.92101339  0.04000610  0.23217972    -0.39400
O911        O  0.07028837  0.93558117  0.28965867    -0.40100
O912        O  0.09083211  0.97172802  0.25116804    -0.40200
C913        C  0.96622666  0.12481778  0.32685513    -0.12500
C914        C  0.95765021  0.10313619  0.35503925     0.04500
C915        C  0.92222789  0.09491921  0.36109944    -0.07800
C916        C  0.89615663  0.11012201  0.34044857    -0.08500
C917        C  0.90448655  0.13245497  0.31245894    -0.03100
C918        C  0.94025444  0.13860680  0.30500679     0.03800
N919        N  0.95107587  0.15786337  0.27524222     0.66300
H920        H  0.99357593  0.13011000  0.32094845     0.15200
H921        H  0.86901861  0.10384844  0.34628537     0.14900
N922        N  0.91204113  0.07182072  0.38838243     0.74000
O923        O  0.96953491  0.18529499  0.27928363    -0.39500
O924        O  0.95246081  0.14176757  0.24675068    -0.39400
O925        O  0.89909739  0.08497742  0.41545912    -0.40100
O926        O  0.90689982  0.03947924  0.38178570    -0.40200
C927        C  0.14377016  0.95927641  0.33982912    -0.12500
C928        C  0.11231336  0.95226057  0.35783396     0.04500
C929        C  0.09989582  0.91729135  0.35947545    -0.07800
C930        C  0.11845403  0.89035429  0.34258154    -0.08500
C931        C  0.14851605  0.89790559  0.32274705    -0.03100
C932        C  0.16137168  0.93271157  0.32167885     0.03800
N933        N  0.19165806  0.94177289  0.30177790     0.66300
H934        H  0.15370574  0.98608646  0.33784117     0.15200
H935        H  0.10800432  0.86366940  0.34327188     0.14900
N936        N  0.06776377  0.90890390  0.37659635     0.74000
O937        O  0.18758891  0.95294997  0.27142740    -0.39500
O938        O  0.22055316  0.94710077  0.31691224    -0.39400
O939        O  0.04004148  0.90522691  0.35907127    -0.40100
O940        O  0.06879256  0.89702229  0.40691889    -0.40200
C941        C  0.35374560  0.84042734  0.06709835    -0.12500
C942        C  0.38559534  0.83211190  0.08380219     0.04500
C943        C  0.39993811  0.79815699  0.07942925    -0.07800
C944        C  0.38400644  0.77439101  0.05638901    -0.08500
C945        C  0.35285456  0.78318541  0.03836562    -0.03100
C946        C  0.33695384  0.81623096  0.04519713     0.03800
N947        N  0.32053013  0.83478737  0.51209271     0.66300
H948        H  0.34181400  0.86625187  0.07094067     0.15200
H949        H  0.39595283  0.74852313  0.05310335     0.14900
N950        N  0.43081591  0.78749397  0.09758831     0.74000
O951        O  0.28967416  0.83819935  0.52358984    -0.39500
O952        O  0.32868545  0.84989125  0.48426579    -0.39400
O953        O  0.42754564  0.77092583  0.12558881    -0.40100
O954        O  0.45980162  0.78633925  0.08186034    -0.40200
C955        C  0.50448820  0.00532353  0.22601677    -0.12500
C956        C  0.48525744  0.97352482  0.22913696     0.04500
C957        C  0.47663122  0.96129793  0.26220743    -0.07800
C958        C  0.48687947  0.98099292  0.29113010    -0.08500
C959        C  0.50605312  0.01286795  0.28805255    -0.03100
C960        C  0.51505909  0.02484226  0.25498014     0.03800
N961        N  0.53644387  0.05553174  0.25028153     0.66300
H962        H  0.51180428  0.01498314  0.20075297     0.15200
H963        H  0.47953176  0.97123367  0.31634866     0.14900
N964        N  0.45630804  0.92987776  0.26697723     0.74000
O965        O  0.56946157  0.05213807  0.24970034    -0.39500
O966        O  0.52270216  0.08350635  0.23865088    -0.39400
O967        O  0.47141692  0.90190421  0.27688112    -0.40100
O968        O  0.42330397  0.93231054  0.26946765    -0.40200
C969        C  0.51129077  0.97682737  0.48664431    -0.12500
C970        C  0.52008155  0.01286852  0.48946446     0.04500
C971        C  0.50136846  0.02725019  0.01559540    -0.07800
C972        C  0.47405066  0.01116221  0.03396486    -0.08500
C973        C  0.46573526  0.97524618  0.02907715    -0.03100
C974        C  0.48657413  0.96136032  0.50855147     0.03800
N975        N  0.48056372  0.92405629  0.50642113     0.66300
H976        H  0.52236994  0.96077722  0.46622874     0.15200
H977        H  0.46101249  0.02619438  0.05411042     0.14900
N978        N  0.50952996  0.06353578  0.02231377     0.74000
O979        O  0.45977688  0.91220596  0.48384309    -0.39500
O980        O  0.50158887  0.90308978  0.52115859    -0.39400
O981        O  0.49104173  0.08754217  0.00876714    -0.40100
O982        O  0.52906930  0.07111313  0.04754963    -0.40200
C983        C  0.33466080  0.06254856  0.07381943    -0.12500
C984        C  0.35316380  0.09412565  0.07008635     0.04500
C985        C  0.38696025  0.09723415  0.08513315    -0.07800
C986        C  0.40211185  0.06829060  0.10223825    -0.08500
C987        C  0.38388251  0.03625386  0.10564354    -0.03100
C988        C  0.34921546  0.03398909  0.09190172     0.03800
N989        N  0.32870150  0.00245828  0.09464810     0.66300
H990        H  0.30867592  0.05998629  0.06258111     0.15200
H991        H  0.42870450  0.07062154  0.11204865     0.14900
N992        N  0.40729841  0.12879773  0.08133116     0.74000
O993        O  0.30744409  0.99949017  0.11939997    -0.39500
O994        O  0.32502479  0.98282481  0.06854042    -0.39400
O995        O  0.41007922  0.14980515  0.10651468    -0.40100
O996        O  0.42918019  0.12329892  0.54506009    -0.40200
C997        C  0.35408743  0.86074253  0.21904985    -0.12500
C998        C  0.34543706  0.88981442  0.19784483     0.04500
C999        C  0.31074859  0.90242452  0.19768882    -0.07800
C1000       C  0.28529260  0.88529184  0.21742140    -0.08500
C1001       C  0.29319816  0.85462676  0.23667243    -0.03100
C1002       C  0.32824025  0.84271060  0.23792262     0.03800
N1003       N  0.33786364  0.81175044  0.25683807     0.66300
H1004       H  0.38077345  0.85063954  0.21946834     0.15200
H1005       H  0.25856196  0.89512355  0.21598902     0.14900
N1006       N  0.30075097  0.93248078  0.17766488     0.74000
O1007       O  0.34053538  0.78253200  0.24117129    -0.39500
O1008       O  0.35237664  0.81527805  0.28587087    -0.39400
O1009       O  0.28429543  0.92770478  0.14981277    -0.40100
O1010       O  0.29982671  0.96258210  0.19186130    -0.40200
C1011       C  0.59917044  0.87480371  0.09057508    -0.12500
C1012       C  0.59054232  0.84684975  0.06783040     0.04500
C1013       C  0.55526043  0.83624126  0.06541611    -0.07800
C1014       C  0.52970694  0.85294221  0.08578345    -0.08500
C1015       C  0.53825093  0.88089373  0.10836069    -0.03100
C1016       C  0.57346201  0.89213618  0.11030921     0.03800
N1017       N  0.58383348  0.92043099  0.13260173     0.66300
H1018       H  0.62614143  0.88376467  0.09268026     0.15200
H1019       H  0.50268585  0.84432357  0.08334947     0.14900
N1020       N  0.54496752  0.80742025  0.04393327     0.74000
O1021       O  0.59429887  0.91336078  0.16265723    -0.39500
O1022       O  0.59074432  0.95034713  0.11985178    -0.39400
O1023       O  0.53436380  0.77929326  0.05798034    -0.40100
O1024       O  0.53699244  0.81341876  0.01294017    -0.40200
O1025       O  0.38736297  0.98264950  0.63307675    -0.82000
C1026       C  0.51037408  0.90282026  0.62997258     0.97400
O1027       O  0.51039959  0.93544951  0.63810784    -0.71100
O1028       O  0.47690525  0.95797991  0.58557543    -0.74700
Al1029     Al  0.47051042  0.96761469  0.63155877     1.49000
C1030       C  0.45422430  0.96592789  0.56372090     0.92600
O1031       O  0.40631118  0.89852244  0.58674958    -0.80900
O1032       O  0.40468313  0.90747414  0.68800580    -0.74500
Al1033     Al  0.39854310  0.94010563  0.61080263     1.90100
O1034       O  0.41785387  0.86447023  0.63108266    -0.73600
O1035       O  0.47101017  0.92409209  0.69678021    -0.73400
O1036       O  0.48379702  0.88424487  0.63625873    -0.79100
O1037       O  0.46668156  0.97877394  0.67753373    -0.77300
O1038       O  0.43750106  0.93508290  0.63479756    -1.13400
O1039       O  0.43794220  0.00738547  0.62238697    -0.72600
C1040       C  0.40459196  0.00971500  0.62524146     0.98100
C1041       C  0.40669448  0.86841437  0.60030416     0.94500
Al1042     Al  0.44413327  0.89771882  0.66125353     1.55600
O1043       O  0.42150023  0.96437078  0.57101163    -0.77200
C1044       C  0.47360485  0.95756224  0.70143099     0.98700
C1045       C  0.37395859  0.90770678  0.67617987     0.93600
O1046       O  0.36816634  0.91679611  0.64506966    -0.82500
O1047       O  0.10862715  0.01316132  0.88115022    -0.82000
C1048       C  0.98543261  0.09035224  0.88070976     0.97400
O1049       O  0.98585678  0.05809617  0.89002752    -0.71100
O1050       O  0.01803571  0.03716327  0.83677425    -0.74700
Al1051     Al  0.02589956  0.02661848  0.88182582     1.49000
C1052       C  0.03943731  0.03012507  0.81348813     0.92600
O1053       O  0.08893174  0.09849604  0.83744316    -0.80900
O1054       O  0.09187729  0.08677545  0.93885980    -0.74500
Al1055     Al  0.09670842  0.05578114  0.86004861     1.90100
O1056       O  0.07760614  0.13040129  0.88366434    -0.73600
O1057       O  0.02481096  0.06855073  0.94782365    -0.73400
O1058       O  0.01138139  0.10977793  0.88750646    -0.79100
O1059       O  0.03145314  0.01465364  0.92721558    -0.77300
O1060       O  0.05837898  0.05972634  0.88503208    -1.13400
O1061       O  0.05851895  0.98731748  0.87074022    -0.72600
C1062       C  0.09185602  0.98582479  0.87332552     0.98100
C1063       C  0.08899435  0.12776420  0.85287089     0.94500
Al1064     Al  0.05152662  0.09633913  0.91264777     1.55600
O1065       O  0.07255834  0.03208678  0.81956198    -0.77200
C1066       C  0.02398716  0.03483623  0.95184495     0.98700
C1067       C  0.12231004  0.08711807  0.92602875     0.93600
O1068       O  0.12730390  0.07825634  0.89466756    -0.82500
O1069       O  0.23636338  0.85659827  0.75947142    -0.82000
C1070       C  0.15241857  0.73699176  0.75222312     0.97400
O1071       O  0.18443784  0.73541136  0.76157228    -0.71100
O1072       O  0.20895538  0.76928270  0.71047049    -0.74700
Al1073     Al  0.21822480  0.77429620  0.75622141     1.49000
C1074       C  0.21859603  0.79137888  0.68857518     0.92600
O1075       O  0.15251056  0.84305435  0.71138563    -0.80900
O1076       O  0.16079148  0.84210654  0.81278578    -0.74500
Al1077     Al  0.19420569  0.84808010  0.73606011     1.90100
O1078       O  0.11809145  0.83166899  0.75541151    -0.73600
O1079       O  0.17397999  0.77384841  0.82065884    -0.73400
O1080       O  0.13469428  0.76430567  0.75872368    -0.79100
O1081       O  0.22865390  0.77709041  0.80249339    -0.77300
O1082       O  0.18719310  0.80876775  0.75935738    -1.13400
O1083       O  0.25954274  0.80515340  0.74772421    -0.72600
C1084       C  0.26270361  0.83857302  0.75100907     0.98100
C1085       C  0.12242496  0.84322313  0.72483825     0.94500
Al1086     Al  0.14952667  0.80317561  0.78521664     1.55600
O1087       O  0.21825036  0.82442645  0.69592136    -0.77200
C1088       C  0.20700968  0.76961922  0.82576641     0.98700
C1089       C  0.16233922  0.87320659  0.80132357     0.93600
O1090       O  0.17195558  0.87902132  0.77043126    -0.82500
O1091       O  0.87358074  0.91584656  0.62423342    -0.82000
C1092       C  0.01481308  0.90559148  0.63766531     0.97400
O1093       O  0.98906347  0.88599670  0.63078380    -0.71100
O1094       O  0.92323437  0.86447025  0.63451273    -0.74700
Al1095     Al  0.94909783  0.89893805  0.60579877     1.49000
C1096       C  0.91244669  0.86685810  0.66548796     0.92600
O1097       O  0.92813536  0.96169740  0.69927838    -0.80900
O1098       O  0.94087075  0.00799921  0.64817470    -0.74500
Al1099     Al  0.90398748  0.93855697  0.65890630     1.90100
O1100       O  0.98266396  0.95883266  0.68149088    -0.73600
O1101       O  0.96796419  0.98103466  0.59088134    -0.73400
O1102       O  0.01435086  0.93786787  0.62823380    -0.79100
O1103       O  0.97563166  0.92690564  0.57094256    -0.77300
O1104       O  0.94200172  0.93551859  0.63351847    -1.13400
O1105       O  0.90876465  0.90798890  0.57968617    -0.72600
C1106       C  0.87856408  0.90672279  0.59290258     0.98100
C1107       C  0.96123460  0.96372082  0.70523961     0.94500
Al1108     Al  0.97404075  0.96914669  0.63652290     1.55600
O1109       O  0.91295136  0.89595205  0.68110047    -0.77200
C1110       C  0.97604074  0.96055926  0.56662145     0.98700
C1111       C  0.90742726  0.00891627  0.64642127     0.93600
O1112       O  0.89098059  0.98136165  0.63858057    -0.82500
O1113       O  0.82594659  0.11388790  0.75186658    -0.82000
C1114       C  0.83840279  0.25821346  0.76716214     0.97400
O1115       O  0.85699790  0.23163226  0.76031890    -0.71100
O1116       O  0.87816903  0.16486720  0.76472304    -0.74700
Al1117     Al  0.84300984  0.19101315  0.73591302     1.49000
C1118       C  0.87552675  0.15239362  0.79524457     0.92600
O1119       O  0.78127912  0.16607020  0.82871993    -0.80900
O1120       O  0.73590586  0.18349954  0.78065520    -0.74500
Al1121     Al  0.80369925  0.14380666  0.78743258     1.90100
O1122       O  0.78776828  0.22195351  0.81490357    -0.73600
O1123       O  0.76060358  0.21366460  0.72402219    -0.73400
O1124       O  0.80548741  0.25711187  0.76174247    -0.79100
O1125       O  0.81373831  0.21754486  0.70185982    -0.77300
O1126       O  0.80720195  0.18347043  0.76385833    -1.13400
O1127       O  0.83373533  0.15087008  0.70904987    -0.72600
C1128       C  0.83489402  0.11989906  0.72078302     0.98100
C1129       C  0.78051853  0.19890589  0.83672025     0.94500
Al1130     Al  0.77478252  0.21652976  0.76955668     1.55600
O1131       O  0.84606243  0.15135193  0.80972712    -0.77200
C1132       C  0.78015372  0.21994794  0.69872538     0.98700
C1133       C  0.73366295  0.15000164  0.77708343     0.93600
O1134       O  0.76018612  0.13287899  0.76710282    -0.82500
O1135       O  0.16910546  0.37698433  0.75625416    -0.82000
C1136       C  0.15371583  0.23404978  0.76710140     0.97400
O1137       O  0.13597198  0.26090610  0.75941583    -0.71100
O1138       O  0.11822944  0.32731215  0.76617587    -0.74700
Al1139     Al  0.15145643  0.30143497  0.73621202     1.49000
C1140       C  0.12061378  0.33632453  0.79783443     0.92600
O1141       O  0.21559839  0.32132954  0.82933476    -0.80900
O1142       O  0.25917031  0.30459852  0.77885498    -0.74500
Al1143     Al  0.19205217  0.34510423  0.78981593     1.90100
O1144       O  0.20759273  0.26608459  0.81415178    -0.73600
O1145       O  0.23183170  0.27610919  0.72260746    -0.73400
O1146       O  0.18645560  0.23353540  0.76056021    -0.79100
O1147       O  0.17856363  0.27468829  0.70076063    -0.77300
O1148       O  0.18757485  0.30660248  0.76438431    -1.13400
O1149       O  0.16254045  0.34246731  0.71119278    -0.72600
C1150       C  0.16065771  0.37278967  0.72469246     0.98100
C1151       C  0.21612960  0.28836346  0.83637005     0.94500
Al1152     Al  0.21903213  0.27259202  0.76835485     1.55600
O1153       O  0.14986128  0.33643104  0.81283640    -0.77200
C1154       C  0.21185227  0.27083233  0.69734401     0.98700
C1155       C  0.26181282  0.33822303  0.77653519     0.93600
O1156       O  0.23511757  0.35634909  0.76881288    -0.82500
O1157       O  0.12465321  0.57913035  0.63088394    -0.82000
C1158       C  0.98436470  0.59148688  0.63546994     0.97400
O1159       O  0.01040733  0.61022060  0.62789660    -0.71100
O1160       O  0.07573302  0.63074586  0.63711089    -0.74700
Al1161     Al  0.05134414  0.59576989  0.60629039     1.49000
C1162       C  0.08347974  0.62849902  0.66910997     0.92600
O1163       O  0.06488161  0.53270736  0.70143024    -0.80900
O1164       O  0.05517801  0.48671641  0.64865695    -0.74500
Al1165     Al  0.09146630  0.55637312  0.66316246     1.90100
O1166       O  0.01162693  0.53580775  0.68031500    -0.73600
O1167       O  0.03140159  0.51430323  0.59056044    -0.73400
O1168       O  0.98399443  0.55897023  0.62637658    -0.79100
O1169       O  0.02648272  0.56783002  0.56947435    -0.77300
O1170       O  0.05560471  0.55934678  0.63489589    -1.13400
O1171       O  0.09310701  0.58492934  0.58354573    -0.72600
C1172       C  0.12210880  0.58718032  0.59899640     0.98100
C1173       C  0.03164487  0.52895201  0.70464246     0.94500
Al1174     Al  0.02300703  0.52628741  0.63580284     1.55600
O1175       O  0.07991285  0.59933133  0.68427355    -0.77200
C1176       C  0.02465282  0.53409827  0.56558873     0.98700
C1177       C  0.08864843  0.48550614  0.65042855     0.93600
O1178       O  0.10616065  0.51300021  0.64439624    -0.82500
O1179       O  0.88197086  0.48123004  0.87989323    -0.82000
C1180       C  0.01042904  0.40862236  0.87141925     0.97400
O1181       O  0.00841219  0.44163390  0.87802197    -0.71100
O1182       O  0.97055012  0.46752091  0.82993830    -0.74700
Al1183     Al  0.96653815  0.47205674  0.87647304     1.49000
C1184       C  0.94630035  0.47433308  0.80936431     0.92600
O1185       O  0.90487658  0.39859671  0.83173120    -0.80900
O1186       O  0.90727629  0.40587504  0.93390420    -0.74500
Al1187     Al  0.89571196  0.43983356  0.85692361     1.90100
O1188       O  0.91955921  0.36549670  0.87597921    -0.73600
O1189       O  0.97447038  0.42589310  0.94011347    -0.73400
O1190       O  0.98530041  0.38833018  0.87820493    -0.79100
O1191       O  0.96525613  0.48044633  0.92307826    -0.77300
O1192       O  0.93601632  0.43706573  0.87953310    -1.13400
O1193       O  0.93129885  0.50957618  0.87173766    -0.72600
C1194       C  0.89793470  0.50952222  0.87369309     0.98100
C1195       C  0.90635883  0.36879075  0.84594830     0.94500
Al1196     Al  0.94617403  0.39931709  0.90509719     1.55600
O1197       O  0.91453431  0.46702501  0.81693486    -0.77200
C1198       C  0.97496206  0.45925911  0.94591046     0.98700
C1199       C  0.87632766  0.40440430  0.92251935     0.93600
O1200       O  0.86908726  0.41417615  0.89194496    -0.82500
O1201       O  0.33174552  0.61728453  0.50859644    -0.82000
C1202       C  0.34377295  0.75972189  0.51458932     0.97400
O1203       O  0.35611195  0.73007162  0.00645160    -0.71100
O1204       O  0.38318372  0.66676632  0.51276226    -0.74700
Al1205     Al  0.34126456  0.68907032  0.98347181     1.49000
C1206       C  0.38294072  0.65756003  0.54434570     0.92600
O1207       O  0.29084796  0.67536423  0.58303632    -0.80900
O1208       O  0.24266056  0.68691518  0.53381800    -0.74500
Al1209     Al  0.31168771  0.64967957  0.54284195     1.90100
O1210       O  0.29401783  0.72955805  0.56353532    -0.73600
O1211       O  0.25917096  0.70903158  0.97286967    -0.73400
O1212       O  0.31109728  0.75930303  0.50766751    -0.79100
O1213       O  0.31154835  0.71474105  0.94978721    -0.77300
O1214       O  0.31299232  0.68680513  0.51549674    -1.13400
O1215       O  0.32942488  0.64785560  0.95963737    -0.72600
C1216       C  0.33291076  0.61793496  0.97350573     0.98100
C1217       C  0.28885424  0.70879081  0.58788075     0.94500
Al1218     Al  0.28040775  0.71965307  0.51931632     1.55600
O1219       O  0.35535328  0.65990958  0.56185678    -0.77200
C1220       C  0.27805311  0.71618235  0.94731301     0.98700
C1221       C  0.24133452  0.65313784  0.53361348     0.93600
O1222       O  0.26815665  0.63557215  0.52608104    -0.82500
O1223       O  0.73364626  0.35519596  0.99975845    -0.82000
C1224       C  0.65376481  0.22920790  0.50340917     0.97400
O1225       O  0.68630898  0.22896854  0.51070477    -0.71100
O1226       O  0.70777228  0.26268952  0.95762494    -0.74700
Al1227     Al  0.72042224  0.27114461  0.00257632     1.49000
C1228       C  0.71387333  0.28441329  0.93433150     0.92600
O1229       O  0.64804789  0.33222075  0.95925323    -0.80900
O1230       O  0.66237876  0.33776498  0.55887119    -0.74500
Al1231     Al  0.69043948  0.34211240  0.98056615     1.90100
O1232       O  0.61559834  0.32264480  0.50584721    -0.73600
O1233       O  0.67961013  0.27062724  0.56870003    -0.73400
O1234       O  0.63550694  0.25582114  0.51126658    -0.79100
O1235       O  0.73249419  0.27344193  0.54608790    -0.77300
O1236       O  0.68575610  0.30193067  0.50515977    -1.13400
O1237       O  0.75865450  0.30400598  0.99012628    -0.72600
C1238       C  0.76056762  0.33768366  0.99198585     0.98100
C1239       C  0.61926790  0.33371303  0.97486645     0.94500
Al1240     Al  0.65071483  0.29665116  0.53431911     1.55600
O1241       O  0.71278545  0.31767428  0.94043203    -0.77200
C1242       C  0.71312949  0.26825914  0.57175325     0.98700
C1243       C  0.66099701  0.36803565  0.54537449     0.93600
O1244       O  0.66781545  0.37209423  0.51349882    -0.82500
O1245       O  0.37263305  0.41551860  0.87901141    -0.82000
C1246       C  0.51408653  0.40293949  0.89073892     0.97400
O1247       O  0.48813574  0.38440676  0.88224252    -0.71100
O1248       O  0.42272526  0.36374594  0.88774142    -0.74700
Al1249     Al  0.44784963  0.39907215  0.85885662     1.49000
C1250       C  0.41281832  0.36600728  0.91910114     0.92600
O1251       O  0.42736782  0.46062074  0.95357642    -0.80900
O1252       O  0.44218851  0.50639915  0.90470400    -0.74500
Al1253     Al  0.40393524  0.43779491  0.91316234     1.90100
O1254       O  0.48219722  0.45428017  0.93775397    -0.73600
O1255       O  0.47046104  0.48161999  0.84725859    -0.73400
O1256       O  0.51437420  0.43570253  0.88339987    -0.79100
O1257       O  0.47357053  0.42827984  0.82450249    -0.77300
O1258       O  0.44190541  0.43477743  0.88771534    -1.13400
O1259       O  0.40688005  0.40960570  0.83380147    -0.72600
C1260       C  0.37678814  0.40798486  0.84725329     0.98100
C1261       C  0.46017275  0.46144991  0.96044600     0.94500
Al1262     Al  0.47489450  0.46727444  0.89254909     1.55600
O1263       O  0.41363648  0.39518984  0.93461090    -0.77200
C1264       C  0.47608101  0.46206502  0.82167045     0.98700
C1265       C  0.40877726  0.50801621  0.90216868     0.93600
O1266       O  0.39184767  0.48100632  0.89317253    -0.82500
O1267       O  0.26394622  0.13941171  0.00312281    -0.82000
C1268       C  0.34237887  0.25781993  0.50232390     0.97400
O1269       O  0.30997962  0.25865871  0.50991858    -0.71100
O1270       O  0.29459757  0.22821190  0.95704438    -0.74700
Al1271     Al  0.28123020  0.22252489  0.00246145     1.49000
C1272       C  0.28657458  0.20574362  0.93483391     0.92600
O1273       O  0.35103426  0.15523625  0.96160342    -0.80900
O1274       O  0.33506349  0.15292572  0.56279311    -0.74500
Al1275     Al  0.30783292  0.14912450  0.98330213     1.90100
O1276       O  0.37955663  0.16518193  0.50782686    -0.73600
O1277       O  0.31745109  0.22008112  0.56968902    -0.73400
O1278       O  0.36044055  0.23142164  0.51072487    -0.79100
O1279       O  0.26429420  0.21658552  0.54756272    -0.77300
O1280       O  0.30979923  0.18534023  0.50764228    -1.13400
O1281       O  0.24115783  0.19108494  0.99091916    -0.72600
C1282       C  0.23778675  0.15767446  0.99427320     0.98100
C1283       C  0.37983111  0.15561220  0.97741706     0.94500
Al1284     Al  0.34554041  0.19226624  0.53587699     1.55600
O1285       O  0.28638042  0.17281614  0.94236454    -0.77200
C1286       C  0.28400536  0.22289879  0.57285374     0.98700
C1287       C  0.33635766  0.12206683  0.55075611     0.93600
O1288       O  0.32694063  0.11568280  0.51985202    -0.82500
O1289       O  0.62798816  0.06722337  0.88083417    -0.82000
C1290       C  0.48606632  0.09010689  0.89295326     0.97400
O1291       O  0.51335252  0.10733542  0.88594981    -0.71100
O1292       O  0.58047570  0.12259182  0.89166609    -0.74700
Al1293     Al  0.55310220  0.08971877  0.86234639     1.49000
C1294       C  0.59162408  0.11962726  0.92256562     0.92600
O1295       O  0.57052714  0.02511053  0.95556009    -0.80900
O1296       O  0.55191368  0.98216337  0.90629996    -0.74500
Al1297     Al  0.59582611  0.04674052  0.91515011     1.90100
O1298       O  0.51638207  0.03693317  0.94032061    -0.73600
O1299       O  0.52539473  0.00919774  0.84989550    -0.73400
O1300       O  0.48483015  0.05726258  0.88607982    -0.79100
O1301       O  0.52552172  0.06281322  0.82755846    -0.77300
O1302       O  0.55730889  0.05347154  0.89053015    -1.13400
O1303       O  0.59268704  0.07621223  0.83692287    -0.72600
C1304       C  0.62312119  0.07607074  0.84955621     0.98100
C1305       C  0.53755608  0.02601644  0.96231496     0.94500
Al1306     Al  0.52221149  0.02348208  0.89501838     1.55600
O1307       O  0.59118314  0.09016902  0.93766661    -0.77200
C1308       C  0.52079012  0.02932180  0.82463567     0.98700
C1309       C  0.58482283  0.97701420  0.90251458     0.93600
O1310       O  0.60424649  0.00233313  0.89391075    -0.82500
O1311       O  0.66678064  0.87682746  0.50763881    -0.82000
C1312       C  0.65447363  0.73399418  0.51526522     0.97400
O1313       O  0.63619820  0.75492085  0.00724063    -0.71100
O1314       O  0.61668902  0.82684539  0.51765686    -0.74700
Al1315     Al  0.65068648  0.79645742  0.98510615     1.49000
C1316       C  0.62025098  0.83597946  0.54921524     0.92600
O1317       O  0.71614189  0.82068074  0.57824738    -0.80900
O1318       O  0.75851703  0.80674166  0.52579667    -0.74500
Al1319     Al  0.69101559  0.84495424  0.53983200     1.90100
O1320       O  0.70941096  0.76583280  0.56130986    -0.73600
O1321       O  0.73162205  0.77305616  0.97002828    -0.73400
O1322       O  0.68704949  0.73441587  0.50791876    -0.79100
O1323       O  0.67805281  0.77131096  0.94864432    -0.77300
O1324       O  0.68665918  0.80705775  0.51352087    -1.15000
O1325       O  0.66149356  0.83826724  0.96122703    -0.72600
C1326       C  0.65922950  0.86790182  0.97594454     0.98100
C1327       C  0.71823329  0.78749777  0.58391779     0.94500
Al1328     Al  0.71906179  0.77389435  0.51554962     1.55600
O1329       O  0.64988148  0.83490687  0.56338909    -0.77200
C1330       C  0.71137004  0.76794599  0.94494320     0.98700
C1331       C  0.76027091  0.84053294  0.52490046     0.93600
O1332       O  0.73303562  0.85807696  0.51825162    -0.82500
O1333       O  0.76807849  0.63787080  0.75235666    -0.82000
C1334       C  0.84582044  0.76301727  0.75153313     0.97400
O1335       O  0.81290359  0.76257693  0.75708561    -0.71100
O1336       O  0.79483630  0.72684381  0.70429057    -0.74700
Al1337     Al  0.78193973  0.72216205  0.74992899     1.49000
C1338       C  0.78647979  0.70361021  0.68296605     0.92600
O1339       O  0.85351092  0.65794139  0.71045736    -0.80900
O1340       O  0.83961695  0.65789011  0.81139015    -0.74500
Al1341     Al  0.81130561  0.64963316  0.73243738     1.90100
O1342       O  0.88496870  0.67043234  0.75640167    -0.73600
O1343       O  0.82068259  0.72409118  0.81838223    -0.73400
O1344       O  0.86434239  0.73697678  0.75998761    -0.79100
O1345       O  0.76770773  0.72042656  0.79551142    -0.77300
O1346       O  0.81426825  0.68939683  0.75616382    -1.13400
O1347       O  0.74326623  0.68838140  0.73951721    -0.72600
C1348       C  0.74143625  0.65474221  0.74260335     0.98100
C1349       C  0.88254664  0.65836718  0.72566934     0.94500
Al1350     Al  0.84983751  0.69717198  0.78459089     1.55600
O1351       O  0.78838774  0.67092278  0.69099858    -0.77200
C1352       C  0.78712750  0.72649526  0.82104654     0.98700
C1353       C  0.84026476  0.62685412  0.79990366     0.93600
O1354       O  0.83315711  0.62050791  0.76838544    -0.82500
O1355       O  0.61111773  0.50961286  0.62656914    -0.82000
C1356       C  0.49054001  0.59235522  0.62794955     0.97400
O1357       O  0.48963814  0.55935256  0.63430010    -0.71100
O1358       O  0.52275969  0.54058167  0.58039114    -0.74700
Al1359     Al  0.52830987  0.52663599  0.62562874     1.49000
C1360       C  0.54483760  0.53159544  0.55834155     0.92600
O1361       O  0.59358390  0.59702969  0.58495826    -0.80900
O1362       O  0.59647044  0.58202654  0.68602665    -0.74500
Al1363     Al  0.60085229  0.55371191  0.60666253     1.90100
O1364       O  0.58284668  0.62802672  0.63199315    -0.73600
O1365       O  0.52976378  0.56457321  0.69425575    -0.73400
O1366       O  0.51702762  0.60980689  0.63667254    -0.79100
O1367       O  0.53113825  0.51146777  0.67082876    -0.77300
O1368       O  0.56224135  0.55788235  0.63137988    -1.13400
O1369       O  0.55986893  0.48643133  0.61408740    -0.72600
C1370       C  0.59309033  0.48324874  0.61746323     0.98100
C1371       C  0.59310609  0.62610635  0.60073536     0.94500
Al1372     Al  0.55654649  0.59348937  0.66038522     1.55600
O1373       O  0.57754331  0.53142978  0.56580731    -0.77200
C1374       C  0.52643285  0.53081584  0.69672550     0.98700
C1375       C  0.62653984  0.58431987  0.67289286     0.93600
O1376       O  0.63161422  0.57549322  0.64156637    -0.82500
C1377       C  0.67794336  0.65120578  0.72624481    -0.12500
C1378       C  0.71072206  0.63450271  0.72910283     0.04500
C1379       C  0.71479514  0.59998892  0.71463092    -0.07800
C1380       C  0.68713575  0.58412724  0.69648552    -0.08500
C1381       C  0.65472955  0.60102344  0.69343537    -0.03100
C1382       C  0.64986208  0.63459278  0.70922753     0.03800
N1383       N  0.61713524  0.65311840  0.70670208     0.66300
H1384       H  0.67423030  0.67757783  0.73672557     0.15200
H1385       H  0.69106650  0.55838818  0.68465229     0.14900
N1386       N  0.74729664  0.58105191  0.71645748     0.74000
O1387       O  0.59568295  0.65154101  0.73142458    -0.39500
O1388       O  0.61374777  0.67741670  0.68467374    -0.39400
O1389       O  0.75068782  0.55686802  0.73860448    -0.40100
O1390       O  0.76772143  0.58150453  0.69086008    -0.40200
C1391       C  0.65810369  0.69071179  0.56302053    -0.12500
C1392       C  0.63889099  0.70457375  0.53526187     0.04500
C1393       C  0.60352576  0.69397270  0.53085020    -0.07800
C1394       C  0.58837051  0.66977894  0.55377590    -0.08500
C1395       C  0.60729358  0.65674961  0.58200705    -0.03100
C1396       C  0.64271342  0.66696344  0.58624146     0.03800
N1397       N  0.66417771  0.65167139  0.61253464     0.66300
H1398       H  0.68515003  0.69866791  0.56705765     0.15200
H1399       H  0.56202660  0.66018324  0.54877622     0.14900
N1400       N  0.58073721  0.70628941  0.00638827     0.74000
O1401       O  0.68133266  0.62384486  0.60585824    -0.39500
O1402       O  0.67328074  0.67048663  0.63789339    -0.39400
O1403       O  0.57446026  0.68713718  0.98044003    -0.40100
O1404       O  0.56127411  0.73264410  0.01232712    -0.40200
C1405       C  0.73802022  0.75828125  0.85044457    -0.12500
C1406       C  0.76889498  0.73760381  0.85324670     0.04500
C1407       C  0.77898928  0.72551412  0.88600180    -0.07800
C1408       C  0.75904075  0.73498201  0.91500187    -0.08500
C1409       C  0.72851778  0.75617613  0.91235157    -0.03100
C1410       C  0.71788617  0.76756572  0.87947717     0.03800
N1411       N  0.68785283  0.78988424  0.87515433     0.66300
H1412       H  0.72952972  0.76761432  0.82540118     0.15200
H1413       H  0.76744290  0.72535449  0.93996985     0.14900
N1414       N  0.80811203  0.70197172  0.89016211     0.74000
O1415       O  0.69178160  0.82307283  0.87572182    -0.39500
O1416       O  0.65998921  0.77700343  0.86271064    -0.39400
O1417       O  0.83600092  0.71328479  0.90391151    -0.40100
O1418       O  0.80308286  0.66898945  0.88799416    -0.40200
C1419       C  0.73312720  0.72906184  0.65955497    -0.12500
C1420       C  0.76762808  0.71733673  0.65300320     0.04500
C1421       C  0.78643336  0.73258689  0.62570781    -0.07800
C1422       C  0.77103226  0.75955911  0.60611084    -0.08500
C1423       C  0.73673549  0.77161536  0.61301109    -0.03100
C1424       C  0.71764249  0.75587797  0.63983854     0.03800
N1425       N  0.68275854  0.76737303  0.64776578     0.66300
H1426       H  0.71883874  0.71884138  0.68152991     0.15200
H1427       H  0.78520396  0.76974159  0.58402604     0.14900
N1428       N  0.82075821  0.72013321  0.61692516     0.74000
O1429       O  0.65683475  0.75183731  0.63422095    -0.39500
O1430       O  0.67783880  0.78782183  0.67307892    -0.39400
O1431       O  0.82405010  0.69763537  0.59303262    -0.40100
O1432       O  0.84741442  0.73700952  0.62716647    -0.40200
C1433       C  0.59751632  0.94248287  0.95377147    -0.12500
C1434       C  0.60185250  0.94593722  0.91830933     0.04500
C1435       C  0.62759948  0.92492479  0.90175744    -0.07800
C1436       C  0.64721653  0.90037428  0.92110278    -0.08500
C1437       C  0.64247323  0.89724249  0.95691553    -0.03100
C1438       C  0.61700859  0.91870988  0.97311865     0.03800
N1439       N  0.60894887  0.91530765  0.00882056     0.66300
H1440       H  0.57945213  0.96031470  0.96777663     0.15200
H1441       H  0.66031054  0.88315746  0.40689286     0.14900
N1442       N  0.63374150  0.92782118  0.86559998     0.74000
O1443       O  0.62596282  0.93356006  0.03038265    -0.39500
O1444       O  0.57913110  0.90347095  0.01712732    -0.39400
O1445       O  0.66090411  0.94368461  0.85518714    -0.40100
O1446       O  0.61778038  0.90719121  0.84531545    -0.40200
C1447       C  0.43887620  0.08701198  0.93690908    -0.12500
C1448       C  0.45750595  0.10743129  0.91291018     0.04500
C1449       C  0.45162212  0.14447394  0.91206164    -0.07800
C1450       C  0.42831645  0.16029005  0.93552467    -0.08500
C1451       C  0.41002592  0.13980423  0.95950040    -0.03100
C1452       C  0.41493119  0.10272608  0.95967850     0.03800
N1453       N  0.39440954  0.08038860  0.98150404     0.66300
H1454       H  0.44297731  0.05862868  0.93819129     0.15200
H1455       H  0.42299046  0.18844534  0.93371188     0.14900
N1456       N  0.46648581  0.16599700  0.88563941     0.74000
O1457       O  0.36623677  0.06727701  0.96997610    -0.39500
O1458       O  0.40852122  0.06675987  0.00774112    -0.39400
O1459       O  0.44977151  0.16971760  0.85781048    -0.40100
O1460       O  0.48939057  0.18866149  0.89357392    -0.40200
C1461       C  0.50331640  0.45954921  0.76318634    -0.12500
C1462       C  0.48766806  0.47970546  0.78923501     0.04500
C1463       C  0.48580812  0.51714488  0.78488861    -0.07800
C1464       C  0.49950965  0.53318814  0.75529192    -0.08500
C1465       C  0.51501636  0.51304478  0.72916984    -0.03100
C1466       C  0.51699907  0.47560281  0.73356333     0.03800
N1467       N  0.53358329  0.45320334  0.70870487     0.66300
H1468       H  0.50568160  0.43108197  0.76603859     0.15200
H1469       H  0.49722072  0.56165893  0.75249338     0.14900
N1470       N  0.46947993  0.53958337  0.80989666     0.74000
O1471       O  0.56509748  0.44391130  0.71349020    -0.39500
O1472       O  0.51467242  0.43561245  0.68815128    -0.39400
O1473       O  0.48850416  0.55698777  0.83049591    -0.40100
O1474       O  0.43772643  0.54841672  0.80588249    -0.40200
C1475       C  0.47748005  0.51472510  0.99083425    -0.12500
C1476       C  0.47536292  0.47764382  0.99126528     0.04500
C1477       C  0.50428520  0.45776392  0.51052713    -0.07800
C1478       C  0.53021992  0.47720542  0.52787348    -0.08500
C1479       C  0.52953501  0.51432518  0.52806635    -0.03100
C1480       C  0.50410997  0.53248741  0.00878527     0.03800
N1481       N  0.50708460  0.57005557  0.00546462     0.66300
H1482       H  0.46024262  0.52982711  0.97409481     0.15200
H1483       H  0.54958918  0.46317055  0.54320268     0.14900
N1484       N  0.50597973  0.41997423  0.51110921     0.74000
O1485       O  0.52532801  0.58258891  0.98125902    -0.39500
O1486       O  0.47937021  0.58689528  0.52513166    -0.39400
O1487       O  0.52985170  0.40446533  0.49432868    -0.40100
O1488       O  0.49041837  0.40346682  0.53484442    -0.40200
C1489       C  0.36537040  0.34620652  0.95723457    -0.12500
C1490       C  0.39539087  0.33695068  0.93792299     0.04500
C1491       C  0.40897444  0.30245517  0.94072474    -0.07800
C1492       C  0.39306800  0.27845849  0.96342452    -0.08500
C1493       C  0.36324842  0.28797129  0.98311450    -0.03100
C1494       C  0.34929438  0.32227356  0.97956318     0.03800
N1495       N  0.31975090  0.33386149  0.99934212     0.66300
H1496       H  0.35452642  0.37272564  0.95545067     0.15200
H1497       H  0.40374353  0.25187542  0.96498501     0.14900
N1498       N  0.43905221  0.29143736  0.92146756     0.74000
O1499       O  0.31149953  0.34592484  0.51862609    -0.39500
O1500       O  0.29010216  0.33656865  0.98496590    -0.39400
O1501       O  0.46784857  0.28684395  0.93698773    -0.40100
O1502       O  0.43454456  0.27703152  0.89244320    -0.40200
C1503       C  0.59989900  0.38260867  0.93741211    -0.12500
C1504       C  0.59060945  0.35229542  0.95651288     0.04500
C1505       C  0.55596602  0.33980745  0.95469242    -0.07800
C1506       C  0.53200374  0.35637531  0.93242136    -0.08500
C1507       C  0.54158962  0.38610811  0.91243029    -0.03100
C1508       C  0.57580410  0.39973113  0.91586738     0.03800
N1509       N  0.58702600  0.43007813  0.89693602     0.66300
H1510       H  0.62642938  0.39297686  0.93893742     0.15200
H1511       H  0.50539319  0.34630008  0.93136953     0.14900
N1512       N  0.54332796  0.30838692  0.47294732     0.74000
O1513       O  0.58685832  0.46004903  0.91142300    -0.39500
O1514       O  0.60478116  0.42573396  0.86980545    -0.39400
O1515       O  0.52755363  0.31346534  0.50112022    -0.40100
O1516       O  0.54135183  0.27847320  0.45855147    -0.40200
C1517       C  0.64282357  0.45883792  0.58408423    -0.12500
C1518       C  0.61224020  0.45211684  0.60348163     0.04500
C1519       C  0.59959412  0.41715664  0.60525752    -0.07800
C1520       C  0.61701309  0.39011462  0.58720578    -0.08500
C1521       C  0.64644144  0.39730927  0.56639068    -0.03100
C1522       C  0.65956878  0.43203489  0.56526761     0.03800
N1523       N  0.68975777  0.44069658  0.54520660     0.66300
H1524       H  0.65299100  0.48555916  0.58206540     0.15200
H1525       H  0.60664177  0.36341743  0.58854611     0.14900
N1526       N  0.56974528  0.40834637  0.62574110     0.74000
O1527       O  0.68543028  0.45363781  0.51557381    -0.39500
O1528       O  0.71898858  0.44456926  0.56014781    -0.39400
O1529       O  0.54082019  0.40209992  0.61100713    -0.40100
O1530       O  0.57472985  0.39680485  0.65581478    -0.40200
C1531       C  0.64212565  0.14299444  0.95574536    -0.12500
C1532       C  0.60881872  0.14916851  0.94113313     0.04500
C1533       C  0.59207834  0.18161183  0.94759529    -0.07800
C1534       C  0.60798740  0.20659096  0.96921745    -0.08500
C1535       C  0.64130236  0.20066212  0.98411706    -0.03100
C1536       C  0.65875096  0.16852814  0.97645592     0.03800
N1537       N  0.69326744  0.16126621  0.98910688     0.66300
H1538       H  0.65548933  0.11808394  0.95085294     0.15200
H1539       H  0.59295319  0.23437435  0.46891713     0.14900
N1540       N  0.55868155  0.18963159  0.93297762     0.74000
O1541       O  0.69686488  0.14143369  0.01498542    -0.39500
O1542       O  0.71933603  0.16669059  0.96973133    -0.39400
O1543       O  0.53186483  0.18874470  0.95208730    -0.40100
O1544       O  0.55772473  0.20747979  0.90555572    -0.40200
C1545       C  0.35650008  0.52950301  0.93365007    -0.12500
C1546       C  0.38821336  0.53788824  0.91659133     0.04500
C1547       C  0.40023738  0.57308015  0.91728385    -0.07800
C1548       C  0.38065539  0.59888243  0.93480949    -0.08500
C1549       C  0.34981939  0.59001431  0.95288658    -0.03100
C1550       C  0.33772409  0.55500635  0.95220888     0.03800
N1551       N  0.30881235  0.54847752  0.47635474     0.66300
H1552       H  0.34686836  0.50252338  0.93398699     0.15200
H1553       H  0.39041095  0.62583166  0.93545167     0.14900
N1554       N  0.43207840  0.58316114  0.90051798     0.74000
O1555       O  0.27944725  0.54803528  0.46120560    -0.39500
O1556       O  0.31195522  0.53327871  0.50509416    -0.39400
O1557       O  0.43044490  0.59725808  0.87113126    -0.40100
O1558       O  0.45970838  0.58672211  0.91819867    -0.40200
C1559       C  0.43937203  0.66139498  0.57584443    -0.12500
C1560       C  0.41313770  0.64043958  0.56120421     0.04500
C1561       C  0.41161634  0.60403780  0.56959589    -0.07800
C1562       C  0.43607637  0.58932137  0.59241435    -0.08500
C1563       C  0.46248417  0.61013655  0.60741481    -0.03100
C1564       C  0.46398844  0.64676652  0.59869339     0.03800
N1565       N  0.48977167  0.66991342  0.61319536     0.66300
H1566       H  0.43997266  0.68958960  0.57055866     0.15200
H1567       H  0.43467129  0.56120174  0.59784548     0.14900
N1568       N  0.38536527  0.58144789  0.55504430     0.74000
O1569       O  0.51634943  0.67808677  0.59552335    -0.39500
O1570       O  0.48155308  0.68896374  0.63870219    -0.39400
O1571       O  0.40257282  0.56568160  0.01454898    -0.40100
O1572       O  0.35813702  0.57457255  0.57232796    -0.40200
C1573       C  0.83621212  0.56495504  0.81989475    -0.12500
C1574       C  0.85146533  0.59830518  0.82330254     0.04500
C1575       C  0.87844042  0.60344109  0.84804758    -0.07800
C1576       C  0.89158394  0.57449720  0.86651932    -0.08500
C1577       C  0.87765803  0.54058437  0.86166202    -0.03100
C1578       C  0.84849162  0.53627589  0.83911433     0.03800
N1579       N  0.83276465  0.50249112  0.83293334     0.66300
H1580       H  0.81507481  0.56089244  0.80156906     0.15200
H1581       H  0.91397343  0.57824428  0.88341306     0.14900
N1582       N  0.89479659  0.63717569  0.85283597     0.74000
O1583       O  0.80659066  0.49339115  0.85078535    -0.39500
O1584       O  0.83818274  0.48717949  0.80448539    -0.39400
O1585       O  0.92309525  0.64389531  0.83722123    -0.40100
O1586       O  0.88615068  0.65592775  0.87841421    -0.40200
C1587       C  0.82363012  0.33813108  0.97432893    -0.12500
C1588       C  0.79232189  0.35697171  0.97991928     0.04500
C1589       C  0.79043333  0.39287590  0.96887746    -0.07800
C1590       C  0.81840059  0.40799300  0.95083263    -0.08500
C1591       C  0.84889640  0.38868960  0.94429960    -0.03100
C1592       C  0.85195873  0.35375400  0.95702236     0.03800
N1593       N  0.88254746  0.33280717  0.95028592     0.66300
H1594       H  0.82439929  0.30799128  0.48271088     0.15200
H1595       H  0.81601680  0.43487954  0.94134461     0.14900
N1596       N  0.75971838  0.41409019  0.97395095     0.74000
O1597       O  0.90404156  0.32768200  0.47538969    -0.39500
O1598       O  0.88167993  0.30994131  0.92652881    -0.39400
O1599       O  0.75956739  0.43677779  0.99786409    -0.40100
O1600       O  0.73763164  0.41682187  0.94982778    -0.40200
C1601       C  0.96473214  0.64162925  0.67293565    -0.12500
C1602       C  0.95729336  0.60796502  0.65839182     0.04500
C1603       C  0.92673191  0.59026036  0.66937286    -0.07800
C1604       C  0.90425784  0.60655170  0.69330386    -0.08500
C1605       C  0.91149071  0.64034790  0.70713942    -0.03100
C1606       C  0.94231599  0.65770788  0.69703936     0.03800
N1607       N  0.95065695  0.69215783  0.70985421     0.66300
H1608       H  0.98836867  0.65580206  0.66581488     0.15200
H1609       H  0.88021281  0.59304143  0.70044375     0.14900
N1610       N  0.91750653  0.55622765  0.65603675     0.74000
O1611       O  0.97174154  0.69497419  0.73481004    -0.39500
O1612       O  0.94441690  0.71888979  0.69135413    -0.39400
O1613       O  0.92379729  0.52896349  0.67376633    -0.40100
O1614       O  0.89621596  0.55420147  0.63117170    -0.40200
C1615       C  0.00730754  0.47846426  0.53464615    -0.12500
C1616       C  0.01289867  0.51563605  0.53331868     0.04500
C1617       C  0.00612663  0.53299662  0.50205114    -0.07800
C1618       C  0.96919939  0.50714753  0.98898964    -0.08500
C1619       C  0.98676736  0.47593719  0.97863306    -0.03100
C1620       C  0.01762374  0.46603202  0.99629251     0.03800
N1621       N  0.03866800  0.43689833  0.98488045     0.66300
H1622       H  0.01180698  0.46403430  0.55831811     0.15200
H1623       H  0.94576682  0.51568531  0.97541937     0.14900
N1624       N  0.01014163  0.57046784  0.49877817     0.74000
O1625       O  0.06308878  0.44251400  0.96359031    -0.39500
O1626       O  0.03909265  0.40874672  0.00233683    -0.39400
O1627       O  0.03656086  0.58257823  0.48310137    -0.40100
O1628       O  0.98380263  0.59025630  0.50357183    -0.40200
C1629       C  0.00112817  0.53650625  0.75968440    -0.12500
C1630       C  0.01360407  0.51349061  0.73429868     0.04500
C1631       C  0.99629165  0.48059976  0.72951730    -0.07800
C1632       C  0.96785034  0.47110499  0.75041392    -0.08500
C1633       C  0.95772094  0.49255245  0.77795767    -0.03100
C1634       C  0.97377652  0.52622450  0.78164473     0.03800
N1635       N  0.96275150  0.55030053  0.80791921     0.66300
H1636       H  0.01186935  0.56301636  0.76177683     0.15200
H1637       H  0.95611258  0.44515162  0.74729530     0.14900
N1638       N  0.00802318  0.45593132  0.70401697     0.74000
O1639       O  0.98159314  0.55399459  0.83444107    -0.39500
O1640       O  0.94125032  0.57447376  0.80011176    -0.39400
O1641       O  0.03076438  0.43306984  0.71223461    -0.40100
O1642       O  0.98959212  0.45099509  0.67740734    -0.40200
C1643       C  0.17684007  0.64818016  0.54271772    -0.12500
C1644       C  0.21037792  0.63370032  0.54673628     0.04500
C1645       C  0.21443214  0.60248911  0.56685753    -0.07800
C1646       C  0.18547146  0.58772880  0.58371862    -0.08500
C1647       C  0.15209014  0.60254814  0.58008521    -0.03100
C1648       C  0.14774612  0.63278101  0.55884890     0.03800
N1649       N  0.11442365  0.64987980  0.55538149     0.66300
H1650       H  0.17331777  0.67217621  0.52781919     0.15200
H1651       H  0.18911408  0.56450095  0.59970018     0.14900
N1652       N  0.24795294  0.58606015  0.57170199     0.74000
O1653       O  0.10784836  0.67667532  0.57374617    -0.39500
O1654       O  0.09639897  0.64449344  0.52859492    -0.39400
O1655       O  0.26443681  0.59104873  0.59950529    -0.40100
O1656       O  0.25679038  0.56423845  0.07073838    -0.40200
C1657       C  0.28589045  0.38730824  0.81147491    -0.12500
C1658       C  0.29279049  0.35759296  0.79044905     0.04500
C1659       C  0.32790144  0.34636213  0.78649278    -0.07800
C1660       C  0.35492043  0.36438415  0.80400586    -0.08500
C1661       C  0.34761388  0.39298336  0.82637472    -0.03100
C1662       C  0.31264907  0.40460688  0.82965652     0.03800
N1663       N  0.30372100  0.43400134  0.85118809     0.66300
H1664       H  0.25912378  0.39646823  0.81508111     0.15200
H1665       H  0.38171050  0.35501458  0.80110383     0.14900
N1666       N  0.33676500  0.31727006  0.76454331     0.74000
O1667       O  0.30146980  0.46447722  0.83806503    -0.39500
O1668       O  0.28970488  0.42832017  0.88009354    -0.39400
O1669       O  0.34970299  0.32348761  0.73525381    -0.40100
O1670       O  0.34046897  0.28684936  0.77746974    -0.40200
C1671       C  0.22971940  0.24155885  0.60441230    -0.12500
C1672       C  0.26636389  0.23490695  0.60522802     0.04500
C1673       C  0.28431108  0.24021462  0.63648687    -0.07800
C1674       C  0.26583548  0.25197860  0.66556365    -0.08500
C1675       C  0.22920956  0.25879663  0.66477451    -0.03100
C1676       C  0.21121417  0.25335037  0.63352667     0.03800
N1677       N  0.17436168  0.26002897  0.63047775     0.66300
H1678       H  0.21498007  0.23791732  0.58079520     0.15200
H1679       H  0.28066245  0.25553851  0.68913638     0.14900
N1680       N  0.32115464  0.23346602  0.63955598     0.74000
O1681       O  0.16410125  0.28983083  0.61971814    -0.39500
O1682       O  0.15332146  0.23420634  0.62994706    -0.39400
O1683       O  0.34231617  0.25918855  0.63944787    -0.40100
O1684       O  0.33142261  0.20373162  0.65048627    -0.40200
C1685       C  0.26991872  0.27242564  0.86637255    -0.12500
C1686       C  0.23311057  0.27327523  0.86676004     0.04500
C1687       C  0.21483577  0.24793472  0.88636350    -0.07800
C1688       C  0.23329834  0.22170438  0.90430553    -0.08500
C1689       C  0.27015518  0.22081837  0.90405829    -0.03100
C1690       C  0.28846825  0.24664184  0.88486322     0.03800
N1691       N  0.32601640  0.24702515  0.88395171     0.66300
H1692       H  0.28432268  0.29052927  0.84996533     0.15200
H1693       H  0.21882807  0.20383676  0.92088192     0.14900
N1694       N  0.17750086  0.24988579  0.88979312     0.74000
O1695       O  0.34171167  0.22937050  0.86097949    -0.39500
O1696       O  0.34229738  0.27150003  0.89930941    -0.39400
O1697       O  0.15830180  0.22873096  0.87310855    -0.40100
O1698       O  0.16458376  0.26675850  0.91486812    -0.40200
C1699       C  0.06083926  0.36667476  0.87061634    -0.12500
C1700       C  0.04113748  0.39285229  0.85390757     0.04500
C1701       C  0.04603906  0.39790827  0.81836188    -0.07800
C1702       C  0.07032571  0.37745353  0.80002410    -0.08500
C1703       C  0.09062891  0.35183989  0.81671232    -0.03100
C1704       C  0.08590174  0.34662003  0.85251616     0.03800
N1705       N  0.10586329  0.32067874  0.87078088     0.66300
H1706       H  0.05639902  0.36145213  0.89769789     0.15200
H1707       H  0.07394254  0.38231875  0.77274652     0.14900
N1708       N  0.02429602  0.42173515  0.79988262     0.74000
O1709       O  0.13162631  0.33059083  0.88886602    -0.39500
O1710       O  0.09269110  0.29046750  0.87585614    -0.39400
O1711       O  0.03381560  0.45344550  0.79570127    -0.40100
O1712       O  0.99538562  0.41092117  0.78795974    -0.40200
C1713       C  0.13248969  0.46410759  0.69259296    -0.12500
C1714       C  0.10769634  0.45545696  0.66690713     0.04500
C1715       C  0.10155725  0.41945990  0.65960695    -0.07800
C1716       C  0.12021495  0.39320012  0.67779604    -0.08500
C1717       C  0.14450744  0.40195883  0.70407259    -0.03100
C1718       C  0.15044310  0.43801471  0.71128456     0.03800
N1719       N  0.17480935  0.44881085  0.73725796     0.66300
H1720       H  0.13745514  0.49160519  0.69895894     0.15200
H1721       H  0.11483671  0.36567281  0.67190609     0.14900
N1722       N  0.07727248  0.40900832  0.63342651     0.74000
O1723       O  0.20599468  0.45610239  0.72878639    -0.39500
O1724       O  0.16333993  0.45913113  0.76608021    -0.39400
O1725       O  0.08882559  0.40070763  0.60403299    -0.40100
O1726       O  0.04672535  0.39941519  0.64193162    -0.40200
C1727       C  0.71039324  0.09595952  0.80559029    -0.12500
C1728       C  0.70342543  0.12964797  0.79122163     0.04500
C1729       C  0.66944727  0.14405374  0.79506053    -0.07800
C1730       C  0.64370864  0.12504989  0.81297737    -0.08500
C1731       C  0.65128375  0.09236362  0.82870456    -0.03100
C1732       C  0.68499460  0.07769620  0.82479119     0.03800
N1733       N  0.69404177  0.04459054  0.84022518     0.66300
H1734       H  0.73638857  0.08437845  0.80352700     0.15200
H1735       H  0.61785664  0.13680516  0.81593067     0.14900
N1736       N  0.66059944  0.17812789  0.78166654     0.74000
O1737       O  0.69288083  0.01670841  0.82225801    -0.39500
O1738       O  0.71119278  0.04450071  0.86805449    -0.39400
O1739       O  0.64221532  0.17997486  0.75466643    -0.40100
O1740       O  0.66215611  0.20471341  0.80137746    -0.40200
C1741       C  0.71011013  0.24296681  0.63107664    -0.12500
C1742       C  0.73046185  0.25746864  0.60467857     0.04500
C1743       C  0.76755733  0.25939242  0.60951966    -0.07800
C1744       C  0.78308369  0.24655605  0.63982955    -0.08500
C1745       C  0.76276605  0.23175265  0.66611705    -0.03100
C1746       C  0.72559587  0.23015432  0.66138539     0.03800
N1747       N  0.70284153  0.21509366  0.68671515     0.66300
H1748       H  0.68185663  0.24088615  0.62802698     0.15200
H1749       H  0.81133378  0.24862505  0.64287608     0.14900
N1750       N  0.79016523  0.27464527  0.58418890     0.74000
O1751       O  0.68705061  0.23533445  0.70752259    -0.39500
O1752       O  0.69186638  0.18382573  0.68260082    -0.39400
O1753       O  0.80053474  0.30615586  0.58804706    -0.40100
O1754       O  0.80622310  0.25456299  0.56343613    -0.40200
C1755       C  0.72791224  0.21456800  0.86857208    -0.12500
C1756       C  0.76474291  0.21328593  0.86805838     0.04500
C1757       C  0.78376843  0.23902093  0.88662614    -0.07800
C1758       C  0.76611647  0.26643138  0.90370708    -0.08500
C1759       C  0.72930957  0.26825202  0.90366512    -0.03100
C1760       C  0.71016354  0.24176571  0.88603964     0.03800
N1761       N  0.67257132  0.24221405  0.88578960     0.66300
H1762       H  0.71290313  0.19597485  0.85315650     0.15200
H1763       H  0.78118507  0.28475485  0.91938736     0.14900
N1764       N  0.82123167  0.23718218  0.88867869     0.74000
O1765       O  0.65668200  0.26183896  0.86459010    -0.39500
O1766       O  0.65585305  0.21792214  0.90084454    -0.39400
O1767       O  0.83975825  0.25532336  0.86840926    -0.40100
O1768       O  0.83538495  0.22322448  0.91473463    -0.40200
C1769       C  0.83622097  0.30794397  0.80947904    -0.12500
C1770       C  0.85520755  0.28904649  0.78449317     0.04500
C1771       C  0.89141095  0.29661712  0.78028740    -0.07800
C1772       C  0.90816662  0.32116433  0.80196664    -0.08500
C1773       C  0.88945641  0.33896824  0.82771549    -0.03100
C1774       C  0.85286886  0.33293714  0.83077251     0.03800
N1775       N  0.83194050  0.35268350  0.85464358     0.66300
H1776       H  0.80846796  0.30267554  0.81317410     0.15200
H1777       H  0.93569486  0.32723436  0.79788624     0.14900
N1778       N  0.91105916  0.28135086  0.75265682     0.74000
O1779       O  0.81793899  0.38129953  0.84490648    -0.39500
O1780       O  0.82000240  0.33737068  0.88099769    -0.39400
O1781       O  0.91337013  0.29796853  0.72459934    -0.40100
O1782       O  0.93257239  0.25674541  0.75887285    -0.40200
C1783       C  0.81782615  0.90925123  0.56984411    -0.12500
C1784       C  0.84972145  0.89128129  0.57230496     0.04500
C1785       C  0.85330339  0.85775297  0.55619476    -0.07800
C1786       C  0.82443044  0.84217736  0.53946829    -0.08500
C1787       C  0.79203510  0.85985503  0.53743031    -0.03100
C1788       C  0.78933148  0.89438150  0.55217771     0.03800
N1789       N  0.75731264  0.91421696  0.55133673     0.66300
H1790       H  0.81487927  0.93498586  0.58197468     0.15200
H1791       H  0.82714877  0.81573672  0.52884512     0.14900
N1792       N  0.88536368  0.83806407  0.55860578     0.74000
O1793       O  0.73740261  0.91394522  0.57732378    -0.39500
O1794       O  0.75370386  0.93837022  0.52919465    -0.39400
O1795       O  0.88804674  0.81363851  0.58059444    -0.40100
O1796       O  0.90733670  0.83965129  0.53432780    -0.40200
C1797       C  0.84358716  0.80746124  0.70465493    -0.12500
C1798       C  0.86259604  0.79180632  0.73157602     0.04500
C1799       C  0.89890163  0.79944192  0.73476997    -0.07800
C1800       C  0.91536010  0.82191397  0.71110713    -0.08500
C1801       C  0.89647575  0.83700683  0.68394556    -0.03100
C1802       C  0.86005946  0.83005694  0.68108214     0.03800
N1803       N  0.83903639  0.84660531  0.65517313     0.66300
H1804       H  0.81589993  0.80154731  0.70135289     0.15200
H1805       H  0.94281611  0.82868924  0.71474047     0.14900
N1806       N  0.91918288  0.78591298  0.76279224     0.74000
O1807       O  0.83003694  0.82869233  0.62916217    -0.39500
O1808       O  0.82138141  0.87379377  0.66301911    -0.39400
O1809       O  0.94190912  0.76225608  0.75706721    -0.40100
O1810       O  0.92084704  0.80353662  0.79039567    -0.40200
C1811       C  0.85698622  0.03056071  0.68063745    -0.12500
C1812       C  0.88652233  0.03892275  0.66031807     0.04500
C1813       C  0.89700188  0.07445690  0.65774154    -0.07800
C1814       C  0.87890082  0.10063771  0.67663502    -0.08500
C1815       C  0.85054452  0.09182016  0.69860911    -0.03100
C1816       C  0.83944160  0.05637276  0.70002433     0.03800
N1817       N  0.81077165  0.04590036  0.72140934     0.66300
H1818       H  0.84850804  0.00329258  0.68315263     0.15200
H1819       H  0.88780081  0.12784047  0.67497150     0.14900
N1820       N  0.92573371  0.08418847  0.63602327     0.74000
O1821       O  0.78064995  0.04223475  0.70823937    -0.39500
O1822       O  0.81711567  0.03225403  0.75039241    -0.39400
O1823       O  0.92267950  0.08154649  0.60374593    -0.40100
O1824       O  0.95561059  0.08987275  0.64904172    -0.40200
C1825       C  0.11457205  0.71909286  0.70296812    -0.12500
C1826       C  0.13574469  0.70881083  0.73103765     0.04500
C1827       C  0.14002871  0.67254425  0.73773064    -0.07800
C1828       C  0.12246762  0.64754028  0.71725054    -0.08500
C1829       C  0.10073721  0.65757739  0.68930084    -0.03100
C1830       C  0.09749224  0.69402659  0.68193125     0.03800
N1831       N  0.07654659  0.70637890  0.65390128     0.66300
H1832       H  0.11136253  0.74700367  0.69715850     0.15200
H1833       H  0.12622173  0.61978137  0.72332733     0.14900
N1834       N  0.16079603  0.66057369  0.76608214     0.74000
O1835       O  0.04434061  0.71255709  0.65895100    -0.39500
O1836       O  0.09164955  0.72083353  0.62867253    -0.39400
O1837       O  0.14571410  0.65174990  0.79369263    -0.40100
O1838       O  0.19212228  0.65088980  0.76086797    -0.40200
C1839       C  0.25452904  0.73546480  0.85393622    -0.12500
C1840       C  0.22232924  0.75382676  0.85743632     0.04500
C1841       C  0.20810752  0.75820239  0.89058929    -0.07800
C1842       C  0.22681634  0.74560107  0.91926748    -0.08500
C1843       C  0.25966666  0.72838178  0.91571684    -0.03100
C1844       C  0.27311732  0.72282655  0.88246201     0.03800
N1845       N  0.30474203  0.70315596  0.87689712     0.66300
H1846       H  0.26560430  0.73080351  0.82862052     0.15200
H1847       H  0.21579489  0.75001717  0.94463747     0.14900
N1848       N  0.17563046  0.77647636  0.89588863     0.74000
O1849       O  0.30279921  0.67015022  0.87195920    -0.39500
O1850       O  0.33227183  0.71936419  0.86802835    -0.39400
O1851       O  0.14822948  0.75881921  0.90216482    -0.40100
O1852       O  0.17609518  0.80916893  0.90277704    -0.40200
C1853       C  0.22125811  0.74111947  0.64911057    -0.12500
C1854       C  0.23403384  0.77515008  0.65738616     0.04500
C1855       C  0.26736526  0.78501482  0.64498130    -0.07800
C1856       C  0.28754917  0.76038874  0.62639965    -0.08500
C1857       C  0.27496597  0.72602009  0.61905856    -0.03100
C1858       C  0.24173707  0.71632736  0.63148884     0.03800
N1859       N  0.22780621  0.68169099  0.62589405     0.66300
H1860       H  0.19596703  0.73259378  0.65894685     0.15200
H1861       H  0.31234497  0.76899885  0.61548830     0.14900
N1862       N  0.28108671  0.81978343  0.65038730     0.74000
O1863       O  0.23869742  0.65654552  0.64443721    -0.39500
O1864       O  0.19859570  0.67861083  0.61081760    -0.39400
O1865       O  0.31107902  0.82302308  0.66384935    -0.40100
O1866       O  0.26898296  0.84502592  0.63269839    -0.40200
C1867       C  0.03342581  0.86463742  0.68420206    -0.12500
C1868       C  0.04293958  0.89073836  0.65995413     0.04500
C1869       C  0.07802316  0.90230196  0.65904684    -0.07800
C1870       C  0.10294932  0.88658464  0.68079381    -0.08500
C1871       C  0.09368965  0.85981051  0.70443333    -0.03100
C1872       C  0.05820012  0.84953043  0.70660007     0.03800
N1873       N  0.04682350  0.82341574  0.73069697     0.66300
H1874       H  0.00629363  0.85611279  0.68616871     0.15200
H1875       H  0.12995999  0.89551835  0.67908214     0.14900
N1876       N  0.08916592  0.92906869  0.63555653     0.74000
O1877       O  0.03424082  0.83340029  0.75918463    -0.39500
O1878       O  0.04069877  0.79234658  0.72022948    -0.39400
O1879       O  0.09366100  0.96026377  0.64645614    -0.40100
O1880       O  0.10266317  0.91996868  0.60720223    -0.40200
C1881       C  0.08428644  0.17931280  0.81398931    -0.12500
C1882       C  0.10531807  0.15764285  0.83458713     0.04500
C1883       C  0.14226547  0.15923791  0.83094793    -0.07800
C1884       C  0.15747549  0.18293938  0.80754198    -0.08500
C1885       C  0.13653618  0.20517681  0.78708150    -0.03100
C1886       C  0.09939926  0.20278864  0.79028250     0.03800
N1887       N  0.07646276  0.22250598  0.76835190     0.66300
H1888       H  0.05591714  0.17687201  0.81518823     0.15200
H1889       H  0.18588412  0.18452540  0.80610578     0.14900
N1890       N  0.16479503  0.13664398  0.85061495     0.74000
O1891       O  0.06584132  0.20851107  0.74069841    -0.39500
O1892       O  0.06042697  0.24913776  0.78027466    -0.39400
O1893       O  0.17783579  0.10945470  0.83656318    -0.40100
O1894       O  0.17809555  0.14814499  0.87823870    -0.40200
C1895       C  0.14503706  0.13545632  0.96325674    -0.12500
C1896       C  0.15101126  0.10265507  0.94686614     0.04500
C1897       C  0.18436199  0.08694199  0.94938380    -0.07800
C1898       C  0.21132348  0.10458201  0.96695791    -0.08500
C1899       C  0.20614073  0.13843990  0.98166298    -0.03100
C1900       C  0.17228601  0.15359869  0.98019781     0.03800
N1901       N  0.16498936  0.18712594  0.99579632     0.66300
H1902       H  0.11932172  0.14778471  0.96172714     0.15200
H1903       H  0.23702966  0.09218533  0.96766534     0.14900
N1904       N  0.19128255  0.05299618  0.93451338     0.74000
O1905       O  0.16477184  0.21461575  0.97737363    -0.39500
O1906       O  0.14777578  0.17058725  0.53048715    -0.39400
O1907       O  0.20703323  0.05115269  0.90597684    -0.40100
O1908       O  0.18940135  0.02575665  0.95320256    -0.40200
C1909       C  0.02987662  0.98634046  0.48845474    -0.12500
C1910       C  0.01270681  0.01669162  0.98392041     0.04500
C1911       C  0.98933823  0.03172146  0.00789073    -0.07800
C1912       C  0.97339671  0.01152239  0.52659267    -0.08500
C1913       C  0.98773258  0.97799331  0.53450480    -0.03100
C1914       C  0.01619414  0.96539413  0.51492352     0.03800
N1915       N  0.03213510  0.93189721  0.52194608     0.66300
H1916       H  0.04014894  0.96825091  0.96974045     0.15200
H1917       H  0.95149343  0.02178157  0.54144646     0.14900
N1918       N  0.97805088  0.06773002  0.00521140     0.74000
O1919       O  0.02344842  0.90533023  0.50409079    -0.39500
O1920       O  0.06021582  0.93084504  0.53923796    -0.39400
O1921       O  0.94846917  0.07442066  0.99197067    -0.40100
O1922       O  0.99277130  0.09096966  0.02363927    -0.40200
C1923       C  0.98754320  0.02635823  0.77541295    -0.12500
C1924       C  0.02268716  0.01562542  0.78193917     0.04500
C1925       C  0.03506469  0.98462065  0.76583300    -0.07800
C1926       C  0.01269494  0.96544633  0.74397996    -0.08500
C1927       C  0.97770517  0.97630918  0.73753395    -0.03100
C1928       C  0.96490560  0.00637937  0.75455543     0.03800
N1929       N  0.92901873  0.01690788  0.75092608     0.66300
H1930       H  0.97677207  0.04936184  0.78850977     0.15200
H1931       H  0.02327328  0.94243135  0.73074288     0.14900
N1932       N  0.06949774  0.97113445  0.77248012     0.74000
O1933       O  0.90504657  0.99908368  0.76516086    -0.39500
O1934       O  0.92117391  0.04371443  0.73319030    -0.39400
O1935       O  0.07264453  0.94336465  0.79021053    -0.40100
O1936       O  0.09451826  0.98035048  0.75316211    -0.40200
C1937       C  0.96595231  0.13058098  0.83372549    -0.12500
C1938       C  0.95689028  0.10516216  0.85877555     0.04500
C1939       C  0.92173133  0.09392862  0.86068979    -0.07800
C1940       C  0.89639523  0.10947317  0.83926260    -0.08500
C1941       C  0.90512936  0.13576009  0.81480628    -0.03100
C1942       C  0.94070601  0.14536199  0.81149425     0.03800
N1943       N  0.95179927  0.17062765  0.78655390     0.66300
H1944       H  0.99310686  0.13875494  0.83095749     0.15200
H1945       H  0.86942223  0.10068111  0.84189925     0.14900
N1946       N  0.91094878  0.06748091  0.88471157     0.74000
O1947       O  0.95930287  0.20152601  0.79653254    -0.39500
O1948       O  0.96407574  0.15961400  0.75829378    -0.39400
O1949       O  0.89580587  0.07687785  0.91217025    -0.40100
O1950       O  0.90832233  0.03575315  0.87470900    -0.40200
C1951       C  0.14412583  0.96243496  0.84296702    -0.12500
C1952       C  0.11242197  0.95522595  0.86052290     0.04500
C1953       C  0.09976122  0.92032260  0.86107718    -0.07800
C1954       C  0.11769835  0.89388264  0.84285239    -0.08500
C1955       C  0.14790398  0.90166014  0.82329296    -0.03100
C1956       C  0.16161368  0.93619178  0.82407760     0.03800
N1957       N  0.19316364  0.94511516  0.80610696     0.66300
H1958       H  0.15453389  0.98913305  0.84222598     0.15200
H1959       H  0.10688252  0.86733921  0.84271721     0.14900
N1960       N  0.06841035  0.91137114  0.87925719     0.74000
O1961       O  0.19102557  0.95968794  0.77696637    -0.39500
O1962       O  0.22168929  0.94695452  0.82264258    -0.39400
O1963       O  0.04028859  0.90655356  0.86263971    -0.40100
O1964       O  0.07072939  0.90012345  0.90974777    -0.40200
C1965       C  0.36346891  0.84871193  0.55664907    -0.12500
C1966       C  0.39068766  0.83949290  0.57971021     0.04500
C1967       C  0.40195974  0.80407783  0.58098034    -0.07800
C1968       C  0.38688638  0.77907900  0.55866574    -0.08500
C1969       C  0.35989091  0.78841125  0.53539011    -0.03100
C1970       C  0.34785749  0.82364682  0.53491801     0.03800
N1971       N  0.30398669  0.82591981  0.03025705     0.66300
H1972       H  0.35396665  0.87578283  0.55550887     0.15200
H1973       H  0.39592135  0.75187085  0.56016096     0.14900
N1974       N  0.42893270  0.79306555  0.60420610     0.74000
O1975       O  0.27615407  0.82048354  0.04711782    -0.39500
O1976       O  0.30347092  0.84789132  0.00581804    -0.39400
O1977       O  0.42040934  0.77840329  0.63214369    -0.40100
O1978       O  0.46006703  0.79002826  0.59337302    -0.40200
C1979       C  0.50632425  0.00536689  0.73071360    -0.12500
C1980       C  0.48673670  0.97378491  0.73359694     0.04500
C1981       C  0.47813112  0.96112908  0.76648263    -0.07800
C1982       C  0.48900101  0.98021236  0.79556878    -0.08500
C1983       C  0.50835486  0.01203522  0.79263568    -0.03100
C1984       C  0.51702416  0.02449874  0.75972767     0.03800
N1985       N  0.53772592  0.05567848  0.75521252     0.66300
H1986       H  0.51348861  0.01539832  0.70554580     0.15200
H1987       H  0.48177956  0.97021455  0.82073204     0.14900
N1988       N  0.45695525  0.93020552  0.77086234     0.74000
O1989       O  0.57076486  0.05296469  0.75361945    -0.39500
O1990       O  0.52309801  0.08379693  0.74502136    -0.39400
O1991       O  0.47085638  0.90219108  0.78223146    -0.40100
O1992       O  0.42389321  0.93318871  0.77097556    -0.40200
C1993       C  0.51086832  0.97216141  0.98508458    -0.12500
C1994       C  0.52058395  0.00763023  0.99111254     0.04500
C1995       C  0.50262151  0.03378736  0.51414916    -0.07800
C1996       C  0.47701818  0.01852813  0.53540737    -0.08500
C1997       C  0.46858566  0.98237139  0.53276414    -0.03100
C1998       C  0.48452888  0.95569811  0.00435669     0.03800
N1999       N  0.47702261  0.91908995  0.99847203     0.66300
H2000       H  0.52218756  0.95745926  0.96375720     0.15200
H2001       H  0.46521590  0.03451831  0.55555259     0.14900
N2002       N  0.51135256  0.07031536  0.51855860     0.74000
O2003       O  0.45608765  0.91060258  0.97462364    -0.39500
O2004       O  0.49689482  0.89575898  0.01125733    -0.39400
O2005       O  0.49357011  0.09370832  0.50322764    -0.40100
O2006       O  0.53150072  0.07928351  0.54289532    -0.40200
C2007       C  0.33310650  0.06643909  0.58449245    -0.12500
C2008       C  0.35298699  0.09462267  0.57215492     0.04500
C2009       C  0.38868707  0.09758235  0.58203517    -0.07800
C2010       C  0.40450611  0.07091794  0.60165569    -0.08500
C2011       C  0.38521212  0.04151019  0.61273728    -0.03100
C2012       C  0.34852648  0.04042540  0.60531368     0.03800
N2013       N  0.32631163  0.01317252  0.61846769     0.66300
H2014       H  0.30535131  0.06481005  0.57828762     0.15200
H2015       H  0.43241797  0.07266661  0.60706359     0.14900
N2016       N  0.40979056  0.12679718  0.57119847     0.74000
O2017       O  0.30947797  0.01899220  0.64588800    -0.39500
O2018       O  0.31621025  0.98871044  0.59859265    -0.39400
O2019       O  0.41624804  0.15137668  0.59235090    -0.40100
O2020       O  0.42890089  0.13101801  0.05677694    -0.40200
C2021       C  0.35392812  0.86215243  0.71752223    -0.12500
C2022       C  0.34608784  0.89286085  0.69835545     0.04500
C2023       C  0.31210185  0.90717676  0.70016511    -0.07800
C2024       C  0.28649472  0.89026523  0.71996830    -0.08500
C2025       C  0.29344930  0.85807666  0.73714821    -0.03100
C2026       C  0.32781893  0.84423505  0.73612255     0.03800
N2027       N  0.33634048  0.81128099  0.75209044     0.66300
H2028       H  0.38005177  0.85069990  0.71635049     0.15200
H2029       H  0.26031562  0.90160946  0.72020077     0.14900
N2030       N  0.30312727  0.93907301  0.68256122     0.74000
O2031       O  0.33598140  0.78335001  0.73415328    -0.39500
O2032       O  0.35284031  0.81144113  0.78029027    -0.39400
O2033       O  0.28492102  0.93724984  0.65543358    -0.40100
O2034       O  0.30464466  0.96803554  0.69878418    -0.40200
C2035       C  0.60002421  0.88135423  0.59097333    -0.12500
C2036       C  0.59157900  0.85227224  0.56960455     0.04500
C2037       C  0.55685317  0.83996594  0.56894853    -0.07800
C2038       C  0.53134818  0.85665051  0.58932766    -0.08500
C2039       C  0.53957408  0.88596083  0.61050555    -0.03100
C2040       C  0.57443514  0.89846162  0.61098640     0.03800
N2041       N  0.58462588  0.92780534  0.63205028     0.66300
H2042       H  0.62671776  0.89134383  0.59171805     0.15200
H2043       H  0.50469083  0.84672133  0.58817569     0.14900
N2044       N  0.54738460  0.80944703  0.54930002     0.74000
O2045       O  0.59794565  0.92196916  0.66126871    -0.39500
O2046       O  0.58871651  0.95781101  0.61836116    -0.39400
O2047       O  0.54762603  0.77947963  0.56363812    -0.40100
O2048       O  0.53119424  0.81334580  0.52119222    -0.40200
loop_ 
_geom_bond_atom_site_label_1 
_geom_bond_atom_site_label_2 
_geom_bond_distance 
_geom_bond_site_symmetry_2 
_ccdc_geom_bond_type 
O1           C16   1.255   1_565  A
O1           Al9   1.875       .  S
C2           O12   1.257       .  A
C2            O3   1.269       .  A
C2         C1015   1.484       .  S
O3           Al5   1.954       .  S
O4            C6   1.246       .  A
O4           Al5   1.845       .  S
Al5          O13   1.850       .  S
Al5          O15   1.980   1_565  S
Al5          O14   1.762       .  S
C6           O19   1.276       .  A
C6          C973   1.459       .  S
O7           C17   1.254       .  A
O7           Al9   1.853       .  S
O8           C21   1.256       .  A
O8          Al18   1.862       .  S
Al9          O22   1.970       .  S
Al9          O19   1.996       .  S
Al9          O14   1.764       .  S
O10          C17   1.276       .  A
O10         Al18   1.986       .  S
O11          C20   1.281       .  A
O11         Al18   1.984       .  S
O12         Al18   1.875       .  S
O13          C20   1.257       .  A
O14         Al18   1.765       .  S
O15          C16   1.276       .  A
C16         C987   1.491       .  S
C17         C942   1.480       .  S
C20         C956   1.482       .  S
C21          O22   1.276       .  A
C21         C998   1.478       .  S
O23          C38   1.250   1_545  A
O23         Al31   1.860       .  S
C24          O34   1.257   1_655  A
C24          O25   1.269       .  A
C24         C914   1.477       .  S
O25         Al27   1.953   1_655  S
O26          C28   1.246       .  A
O26         Al27   1.817       .  S
Al27         O35   1.835       .  S
Al27         O37   1.976   1_545  S
Al27         O36   1.762       .  S
C28          O41   1.283       .  A
C28         C900   1.477       .  S
O29          C39   1.255       .  A
O29         Al31   1.859       .  S
O30          C43   1.258       .  A
O30         Al40   1.864       .  S
Al31         O44   1.967       .  S
Al31         O41   2.021       .  S
Al31         O36   1.759       .  S
O32          C39   1.277       .  A
O32         Al40   1.981       .  S
O33          C42   1.282       .  A
O33         Al40   2.001       .  S
O34         Al40   1.872       .  S
O35          C42   1.254       .  A
O36         Al40   1.758       .  S
O37          C38   1.271       .  A
C38         C928   1.475       .  S
C39         C858   1.475       .  S
C42         C886   1.480       .  S
C43          O44   1.275       .  A
C43         C872   1.479       .  S
O45          C60   1.254       .  A
O45         Al53   1.870       .  S
C46          O56   1.254       .  A
C46          O47   1.272       .  A
C46         C802   1.489       .  S
O47         Al49   1.961       .  S
O48          C50   1.248       .  A
O48         Al49   1.823       .  S
Al49         O57   1.836       .  S
Al49         O59   1.987       .  S
Al49         O58   1.761       .  S
C50          O63   1.276       .  A
C50         C830   1.469       .  S
O51          C61   1.259       .  A
O51         Al53   1.863       .  S
O52          C65   1.257       .  A
O52         Al62   1.866       .  S
Al53         O66   1.949       .  S
Al53         O63   2.002       .  S
Al53         O58   1.760       .  S
O54          C61   1.278       .  A
O54         Al62   1.983       .  S
O55          C64   1.280       .  A
O55         Al62   1.995       .  S
O56         Al62   1.864       .  S
O57          C64   1.254       .  A
O58         Al62   1.766       .  S
O59          C60   1.274       .  A
C60        C1001   1.482       .  S
C61         C847   1.485       .  S
C64         C816   1.489       .  S
C65          O66   1.271       .  A
C65         C931   1.469       .  S
O67          C82   1.275       .  A
O67         Al75   1.958       .  S
C68          O78   1.272       .  A
C68          O69   1.256   1_455  A
C68         C844   1.487       .  S
O69         Al71   1.869       .  S
O70          C72   1.275       .  A
O70         Al71   1.981       .  S
Al71         O79   1.997       .  S
Al71         O81   1.866       .  S
Al71         O80   1.768       .  S
C72          O85   1.251       .  A
C72         C777   1.466       .  S
O73          C83   1.279       .  A
O73         Al75   2.001       .  S
O74          C87   1.273       .  A
O74         Al84   1.976   1_545  S
Al75         O88   1.863       .  S
Al75         O85   1.850       .  S
Al75         O80   1.755       .  S
O76          C83   1.244       .  A
O76         Al84   1.814       .  S
O77          C86   1.253       .  A
O77         Al84   1.834       .  S
O78         Al84   1.957   1_455  S
O79          C86   1.283       .  A
O80         Al84   1.760       .  S
O81          C82   1.258       .  A
C82         C760   1.469       .  S
C83         C903   1.469       .  S
C86         C889   1.485       .  S
C87          O88   1.251   1_545  A
C87         C788   1.478       .  S
O89         C104   1.276       .  A
O89         Al97   1.969       .  S
C90         O100   1.273       .  A
C90          O91   1.254       .  A
C90         C746   1.494       .  S
O91         Al93   1.876       .  S
O92          C94   1.275       .  A
O92         Al93   1.980       .  S
Al93        O101   1.985       .  S
Al93        O103   1.871       .  S
Al93        O102   1.766       .  S
C94         O107   1.257       .  A
C94         C917   1.489       .  S
O95         C105   1.279       .  A
O95         Al97   2.003       .  S
O96         C109   1.274       .  A
O96        Al106   1.985       .  S
Al97        O110   1.875       .  S
Al97        O107   1.856       .  S
Al97        O102   1.755       .  S
O98         C105   1.246       .  A
O98        Al106   1.839       .  S
O99         C108   1.256       .  A
O99        Al106   1.854       .  S
O100       Al106   1.955       .  S
O101        C108   1.281       .  A
O102       Al106   1.764       .  S
O103        C104   1.258       .  A
C104        C791   1.484       .  S
C105        C732   1.466       .  S
C108        C721   1.482       .  S
C109        O110   1.256       .  A
C109        C704   1.484       .  S
O111        C126   1.278       .  A
O111       Al119   1.989       .  S
C112        O122   1.272       .  A
C112        O113   1.253       .  A
C112        C861   1.492       .  S
O113       Al115   1.869       .  S
O114        C116   1.278       .  A
O114       Al115   1.976       .  S
Al115       O123   1.987       .  S
Al115       O125   1.871       .  S
Al115       O124   1.764       .  S
C116        O129   1.255       .  A
C116        C679   1.475       .  S
O117        C127   1.275       .  A
O117       Al119   1.993       .  S
O118        C131   1.277       .  A
O118       Al128   1.988       .  S
Al119       O132   1.874       .  S
Al119       O129   1.868       .  S
Al119       O124   1.761       .  S
O120        C127   1.247       .  A
O120       Al128   1.854       .  S
O121        C130   1.256       .  A
O121       Al128   1.854       .  S
O122       Al128   1.951       .  S
O123        C130   1.279       .  A
O124       Al128   1.758       .  S
O125        C126   1.258       .  A
C126        C693   1.493       .  S
C127        C662   1.465       .  S
C130        C651   1.487       .  S
C131        O132   1.259       .  A
C131        C634   1.487       .  S
O133        C148   1.282       .  A
O133       Al141   1.983       .  S
C134        O144   1.278       .  A
C134        O135   1.256   1_655  A
C134        C578   1.495       .  S
O135       Al137   1.848       .  S
O136        C138   1.276       .  A
O136       Al137   1.995       .  S
Al137       O145   1.990       .  S
Al137       O147   1.859       .  S
Al137       O146   1.774       .  S
C138        O151   1.254       .  A
C138        C805   1.486       .  S
O139        C149   1.278       .  A
O139       Al141   2.009       .  S
O140        C153   1.275       .  A
O140       Al150   1.992       .  S
Al141       O154   1.867       .  S
Al141       O151   1.866       .  S
Al141       O146   1.754       .  S
O142        C149   1.240       .  A
O142       Al150   1.811       .  S
O143        C152   1.254       .  A
O143       Al150   1.856       .  S
O144       Al150   1.970   1_655  S
O145        C152   1.279       .  A
O146       Al150   1.758       .  S
O147        C148   1.258       .  A
C148        C623   1.481       .  S
C149        C606   1.462       .  S
C152        C592   1.482       .  S
C153        O154   1.253       .  A
C153        C690   1.488       .  S
O155        C170   1.253       .  A
O155       Al163   1.869       .  S
C156        O166   1.252   1_455  A
C156        O157   1.271       .  A
C156        C676   1.478       .  S
O157       Al159   1.960   1_455  S
O158        C160   1.247       .  A
O158       Al159   1.828       .  S
Al159       O167   1.831       .  S
Al159       O169   1.959       .  S
Al159       O168   1.761       .  S
C160        O173   1.273       .  A
C160        C609   1.465       .  S
O161        C171   1.254       .  A
O161       Al163   1.852       .  S
O162        C175   1.255       .  A
O162       Al172   1.865       .  S
Al163       O176   1.943       .  S
Al163       O173   1.995       .  S
Al163       O168   1.771       .  S
O164        C171   1.281       .  A
O164       Al172   1.990       .  S
O165        C174   1.283       .  A
O165       Al172   2.011       .  S
O166       Al172   1.863       .  S
O167        C174   1.250       .  A
O168       Al172   1.776       .  S
O169        C170   1.272       .  A
C170        C553   1.475       .  S
C171        C749   1.481       .  S
C174        C595   1.501       .  S
C175        O176   1.270       .  A
C175        C567   1.463       .  S
O177       C1216   1.276   1_554  A
O177       Al185   1.966       .  S
C178        O188   1.272       .  A
C178       O1203   1.258       .  A
C178        C945   1.491       .  S
O179       C1202   1.257       .  A
O179       Al181   1.871       .  S
O180        C182   1.273       .  A
O180      Al1205   1.976   1_554  S
Al181       O189   1.986       .  S
Al181       O191   1.862       .  S
Al181      O1204   1.984       .  S
Al181      O1214   1.764       .  S
C182        O195   1.255       .  A
C182        C536   1.472       .  S
O183        C193   1.276       .  A
O183       Al185   2.002       .  S
O184        C197   1.273       .  A
O184       Al194   1.965       .  S
Al185       O198   1.863       .  S
Al185       O195   1.867       .  S
Al185       O190   1.765       .  S
O186        C193   1.244       .  A
O186       Al194   1.824       .  S
O187        C196   1.256       .  A
O187      Al1218   1.852       .  S
O188       Al194   1.951       .  S
O189        C196   1.280       .  A
O190       Al194   1.762       .  S
O190      Al1205   1.769   1_554  S
O191        C192   1.258       .  A
C192       O1201   1.274       .  A
C192        C525   1.465       .  S
C193        C833   1.467       .  S
Al194      O1211   1.857   1_554  S
C196        C819   1.487       .  S
C197        O198   1.252       .  A
C197        C620   1.474       .  S
O199        C214   1.252       .  A
O199       Al207   1.860       .  S
C200        O210   1.258       .  A
C200        O201   1.270       .  A
C200       C1535   1.492   1_554  S
O201      Al1227   1.952       .  S
O202        C204   1.245       .  A
O202       Al203   1.845       .  S
Al203       O213   1.977       .  S
Al203      O1225   1.946       .  S
Al203      O1235   1.857       .  S
Al203      O1236   1.763       .  S
C204        O217   1.277       .  A
C204        C735   1.465       .  S
O205        C215   1.254       .  A
O205       Al207   1.852       .  S
O206        C219   1.259       .  A
O206       Al216   1.871       .  S
Al207       O217   2.000       .  S
Al207      O1244   1.968       .  S
Al207      O1236   1.757       .  S
O208       C1239   1.276   1_554  A
O208       Al216   1.989       .  S
O209        C218   1.282       .  A
O209       Al216   1.984       .  S
O210       Al216   1.872       .  S
O211        C218   1.256       .  A
O211      Al1227   1.856       .  S
O212       Al216   1.762       .  S
O212      Al1227   1.761       .  S
O212      Al1231   1.757   1_554  S
O213        C214   1.276       .  A
C214        C564   1.482       .  S
C215       O1232   1.278       .  A
C215        C480   1.479       .  S
C218        C718   1.482       .  S
C219        O220   1.276       .  A
C219        C497   1.483       .  S
O220      Al1231   1.975   1_554  S
O221        C236   1.275       .  A
O221       Al229   1.969       .  S
C222        O232   1.269       .  A
C222        O223   1.256       .  A
C222        C483   1.488       .  S
O223       Al225   1.869       .  S
O224        C226   1.276       .  A
O224       Al225   1.984       .  S
Al225       O233   1.986       .  S
Al225       O235   1.876       .  S
Al225       O234   1.765       .  S
C226        O239   1.256       .  A
C226        C466   1.476       .  S
O227        C237   1.276       .  A
O227       Al229   1.994       .  S
O228        C241   1.273       .  A
O228       Al238   1.972       .  S
Al229       O242   1.864       .  S
Al229       O239   1.858       .  S
Al229       O234   1.757       .  S
O230        C237   1.246       .  A
O230       Al238   1.851       .  S
O231        C240   1.256       .  A
O231       Al238   1.865       .  S
O232       Al238   1.944       .  S
O233        C240   1.282       .  A
O234       Al238   1.766       .  S
O235        C236   1.260       .  A
C236        C637   1.482       .  S
C237        C452   1.463       .  S
C240        C438   1.492       .  S
C241        O242   1.256       .  A
C241        C522   1.476       .  S
O243        C258   1.257       .  A
O243       Al251   1.876       .  S
C244        O254   1.253       .  A
C244        O245   1.267       .  A
C244       C1493   1.482   1_554  S
O245      Al1271   1.941       .  S
O246        C248   1.248       .  A
O246       Al247   1.848       .  S
Al247       O257   1.970       .  S
Al247      O1269   1.942       .  S
Al247      O1279   1.851       .  S
Al247      O1280   1.766       .  S
C248        O261   1.278       .  A
C248        C665   1.465       .  S
O249        C259   1.253       .  A
O249       Al251   1.854       .  S
O250        C263   1.257       .  A
O250       Al260   1.870       .  S
Al251       O261   2.000       .  S
Al251      O1288   1.968       .  S
Al251      O1280   1.763       .  S
O252       C1283   1.274   1_554  A
O252       Al260   1.971       .  S
O253        C262   1.282       .  A
O253       Al260   1.987       .  S
O254       Al260   1.867       .  S
O255        C262   1.257       .  A
O255      Al1271   1.849       .  S
O256       Al260   1.767       .  S
O256      Al1271   1.767       .  S
O256      Al1275   1.762   1_554  S
O257        C258   1.272       .  A
C258        C875   1.478       .  S
C259       O1276   1.274       .  A
C259        C427   1.468       .  S
C262        C648   1.483       .  S
C263        O264   1.274       .  A
C263        C984   1.476       .  S
O264      Al1275   1.963   1_554  S
O265        C280   1.273       .  A
O265       Al273   1.962       .  S
C266        O276   1.268       .  A
C266        O267   1.255       .  A
C266        C424   1.483       .  S
O267       Al269   1.884       .  S
O268        C270   1.277       .  A
O268       Al269   1.985       .  S
Al269       O277   1.991       .  S
Al269       O279   1.868       .  S
Al269       O278   1.767       .  S
C270        O283   1.255       .  A
C270        C508   1.480       .  S
O271        C281   1.279       .  A
O271       Al273   1.997       .  S
O272        C285   1.272       .  A
O272       Al282   1.971   1_565  S
Al273       O286   1.895       .  S
Al273       O283   1.852       .  S
Al273       O278   1.762       .  S
O274        C281   1.247       .  A
O274       Al282   1.847       .  S
O275        C284   1.256       .  A
O275       Al282   1.844       .  S
O276       Al282   1.938       .  S
O277        C284   1.282       .  A
O278       Al282   1.765       .  S
O279        C280   1.257       .  A
C280        C707   1.481       .  S
C281        C970   1.465       .  S
C284        C959   1.485       .  S
C285        O286   1.255   1_565  A
C285        C410   1.476       .  S
O287       C1326   1.272   1_554  A
O287       Al295   1.954       .  S
C288        O298   1.270       .  A
C288       O1313   1.255       .  A
C288        C368   1.483       .  S
O289       C1312   1.255       .  A
O289       Al291   1.874       .  S
O290        C292   1.280       .  A
O290      Al1315   1.997   1_554  S
Al291       O299   1.987       .  S
Al291       O301   1.873       .  S
Al291      O1314   1.990       .  S
Al291      O1324   1.767       .  S
C292        O305   1.255       .  A
C292       C1012   1.487       .  S
O293        C303   1.272       .  A
O293       Al295   1.983       .  S
O294        C307   1.276       .  A
O294       Al304   1.978       .  S
Al295       O308   1.873       .  S
Al295       O305   1.856       .  S
Al295       O300   1.763       .  S
O296        C303   1.246       .  A
O296       Al304   1.844       .  S
O297        C306   1.256       .  A
O297      Al1328   1.855       .  S
O298       Al304   1.942       .  S
O299        C306   1.279       .  A
O300       Al304   1.759       .  S
O300      Al1315   1.767   1_554  S
O301        C302   1.256       .  A
C302       O1311   1.275       .  A
C302        C413   1.481       .  S
C303        C399   1.455       .  S
Al304      O1321   1.852   1_554  S
C306        C385   1.481       .  S
C307        O308   1.256       .  A
C307        C763   1.489       .  S
O309        C324   1.254       .  A
O309       Al317   1.870       .  S
C310        O320   1.251       .  A
C310        O311   1.269       .  A
C310        C774   1.476       .  S
O311       Al313   1.945       .  S
O312        C314   1.247       .  A
O312       Al313   1.847       .  S
Al313       O321   1.855       .  S
Al313       O323   1.986       .  S
Al313       O322   1.761       .  S
C314        O327   1.274       .  A
C314        C396   1.456       .  S
O315        C325   1.251       .  A
O315       Al317   1.845       .  S
O316        C329   1.251       .  A
O316       Al326   1.852       .  S
Al317       O330   1.954       .  S
Al317       O327   1.989       .  S
Al317       O322   1.764       .  S
O318        C325   1.279       .  A
O318       Al326   1.992       .  S
O319        C328   1.281       .  A
O319       Al326   1.985       .  S
O320       Al326   1.857       .  S
O321        C328   1.257       .  A
O322       Al326   1.766       .  S
O323        C324   1.277       .  A
C324        C354   1.489       .  S
C325        C581   1.473       .  S
C328        C382   1.481       .  S
C329        O330   1.273       .  A
C329        C550   1.468       .  S
O331        C346   1.257       .  A
O331       Al339   1.878       .  S
C332        O342   1.251       .  A
C332        O333   1.271       .  A
C332        C539   1.493       .  S
O333       Al335   1.950       .  S
O334        C336   1.247       .  A
O334       Al335   1.845       .  S
Al335       O343   1.856       .  S
Al335       O345   1.989       .  S
Al335       O344   1.765       .  S
C336        O349   1.277       .  A
C336        C455   1.460       .  S
O337        C347   1.253       .  A
O337       Al339   1.852       .  S
O338        C351   1.255       .  A
O338       Al348   1.864       .  S
Al339       O352   1.963       .  S
Al339       O349   1.999       .  S
Al339       O344   1.761       .  S
O340        C347   1.276       .  A
O340       Al348   1.979       .  S
O341        C350   1.284       .  A
O341       Al348   1.997       .  S
O342       Al348   1.873       .  S
O343        C350   1.257       .  A
O344       Al348   1.766       .  S
O345        C346   1.275       .  A
C346        C494   1.487       .  S
C347        C371   1.468       .  S
C350        C441   1.494       .  S
C351        O352   1.274       .  A
C351        C357   1.474       .  S
C353        C354   1.400       .  A
C353        C358   1.402       .  A
C353        H360   1.083       .  S
C354        C355   1.425       .  A
C355        C356   1.399       .  A
C355        N362   1.428       .  S
C356        C357   1.391       .  A
C356        H361   1.084       .  S
C357        C358   1.417       .  A
C358        N359   1.429       .  S
N359        O363   1.262       .  A
N359        O364   1.262       .  A
N362        O366   1.262       .  A
N362        O365   1.262       .  A
C367        C368   1.404       .  A
C367        C372   1.402       .  A
C367        H374   1.083       .  S
C368        C369   1.414       .  A
C369        C370   1.400       .  A
C369       N1400   1.428       .  S
C370        C371   1.397       .  A
C370        H375   1.082       .  S
C371        C372   1.413       .  A
C372        N373   1.430       .  S
N373        O377   1.262       .  A
N373        O378   1.261       .  A
N376       C1393   1.429       .  S
N376        O380   1.261       .  A
N376        O379   1.262       .  A
C381        C382   1.410       .  A
C381        C386   1.405       .  A
C381        H388   1.084       .  S
C382        C383   1.405       .  A
C383        C384   1.402       .  A
C383        N390   1.428       .  S
C384        C385   1.408       .  A
C384        H389   1.084       .  S
C385        C386   1.407       .  A
C386        N387   1.428       .  S
N387        O391   1.262       .  A
N387        O392   1.262       .  A
N390        O394   1.262       .  A
N390        O393   1.261       .  A
C395        C396   1.404       .  A
C395        C400   1.398       .  A
C395        H402   1.084       .  S
C396        C397   1.407       .  A
C397        C398   1.398       .  A
C397        N404   1.429       .  S
C398        C399   1.403       .  A
C398        H403   1.085       .  S
C399        C400   1.405       .  A
C400        N401   1.428       .  S
N401        O405   1.261       .  A
N401        O406   1.262       .  A
N404        O408   1.261       .  A
N404        O407   1.262       .  A
C409        C410   1.399       .  A
C409        C414   1.391       .  A
C409        H416   1.074       .  S
C410        C411   1.408       .  A
C411        C412   1.408       .  A
C411        N418   1.428       .  S
C412        C413   1.412       .  A
C412       H1441   1.082       .  S
C413        C414   1.407       .  A
C414        N415   1.427       .  S
N415        O419   1.262       .  A
N415        O420   1.261       .  A
H417       C1436   1.092       .  S
N418        O422   1.262       .  A
N418        O421   1.262       .  A
C423        C424   1.404       .  A
C423        C428   1.400       .  A
C423        H430   1.083       .  S
C424        C425   1.415       .  A
C425        C426   1.402       .  A
C425        N432   1.428       .  S
C426        C427   1.398       .  A
C426        H431   1.084       .  S
C427        C428   1.413       .  A
C428        N429   1.431       .  S
N429        O433   1.262       .  A
N429        O434   1.262       .  A
N432        O436   1.260       .  A
N432        O435   1.261       .  A
C437        C438   1.396       .  A
C437        C442   1.402       .  A
C437        H444   1.084       .  S
C438        C439   1.422       .  A
C439        C440   1.406       .  A
C439        N446   1.427       .  S
C440        C441   1.398       .  A
C440        H445   1.084       .  S
C441        C442   1.422       .  A
C442        N443   1.427       .  S
N443        O447   1.262       .  A
N443        O448   1.261       .  A
N446        O450   1.262       .  A
N446        O449   1.261       .  A
C451        C452   1.400       .  A
C451        C456   1.399       .  A
C451        H458   1.085       .  S
C452       C1477   1.412       .  A
C453        C454   1.399       .  A
C453       C1476   1.411   1_554  A
C453        N460   1.427       .  S
C454        C455   1.400       .  A
C454        H459   1.085       .  S
C455       C1480   1.410       .  A
C456       C1479   1.411       .  A
C456        N457   1.428       .  S
N457        O461   1.262       .  A
N457       O1486   1.261       .  A
N460        O464   1.262       .  A
N460        O463   1.260   1_554  A
O462       N1481   1.261       .  A
C465        C466   1.408       .  A
C465        C470   1.397       .  A
C465        H472   1.084       .  S
C466        C467   1.403       .  A
C467        C468   1.402       .  A
C467        N474   1.427       .  S
C468        C469   1.414       .  A
C468        H473   1.083       .  S
C469       C1268   1.483       .  S
C469        C470   1.407       .  A
C470        N471   1.428       .  S
N471       O1499   1.262       .  A
N471        O476   1.262       .  A
N474        O478   1.262       .  A
N474        O477   1.261       .  A
O475       N1495   1.262   1_554  A
C479        C480   1.409       .  A
C479        C484   1.401       .  A
C479        H486   1.084       .  S
C480        C481   1.401       .  A
C481        C482   1.403       .  A
C481       N1512   1.426       .  S
C482        C483   1.415       .  A
C482        H487   1.082       .  S
C483        C484   1.409       .  A
C484        N485   1.429       .  S
N485        O489   1.262       .  A
N485        O490   1.262       .  A
N488       C1505   1.427       .  S
N488        O492   1.261       .  A
N488        O491   1.262   1_556  A
C493        C494   1.411       .  A
C493        C498   1.400       .  A
C493        H500   1.083       .  S
C494        C495   1.407       .  A
C495        C496   1.404       .  A
C495        N502   1.427       .  S
C496        C497   1.410       .  A
C496        H501   1.084       .  S
C497        C498   1.404       .  A
C498        N499   1.427       .  S
N499        O503   1.262       .  A
N499        O504   1.262       .  A
N502        O506   1.262       .  A
N502        O505   1.262       .  A
C507        C508   1.409       .  A
C507        C512   1.401       .  A
C507        H514   1.083       .  S
C508        C509   1.403       .  A
C509        C510   1.402       .  A
C509        N516   1.425       .  S
C510        C511   1.411       .  A
C510       H1539   1.080       .  S
C511       C1224   1.489       .  S
C511        C512   1.409       .  A
C512        N513   1.428       .  S
N513        O517   1.262       .  A
N513        O518   1.262       .  A
H515       C1534   1.082       .  S
N516        O520   1.262       .  A
N516        O519   1.262       .  A
C521        C522   1.411       .  A
C521        C526   1.396       .  A
C521        H528   1.083       .  S
C522        C523   1.406       .  A
C523        C524   1.397       .  A
C523        N530   1.427       .  S
C524        C525   1.406       .  A
C524        H529   1.083       .  S
C525        C526   1.400       .  A
C526       N1551   1.428       .  S
N527       C1550   1.428       .  S
N527        O531   1.262       .  A
N527        O532   1.262       .  A
N530        O534   1.262       .  A
N530        O533   1.262       .  A
C535        C536   1.395       .  A
C535        C540   1.403       .  A
C535        H542   1.084       .  S
C536        C537   1.412       .  A
C537        C538   1.401       .  A
C537        N544   1.429       .  S
C538        C539   1.403       .  A
C538        H543   1.084       .  S
C539        C540   1.425       .  A
C540        N541   1.428       .  S
N541        O545   1.261       .  A
N541        O546   1.261       .  A
N544        O548   1.262       .  A
N544       O1571   1.262       .  A
O547       N1568   1.262       .  A
C549        C550   1.391       .  A
C549        C554   1.394       .  A
C549        H556   1.084       .  S
C550        C551   1.417       .  A
C551        C552   1.398       .  A
C551        N558   1.429       .  S
C552        C553   1.397       .  A
C552        H557   1.084       .  S
C553        C554   1.421       .  A
C554        N555   1.429       .  S
N555        O559   1.262       .  A
N555        O560   1.262       .  A
N558        O562   1.261       .  A
N558        O561   1.262       .  A
C563        C564   1.401       .  A
C563        C568   1.401       .  A
C563       H1594   1.083       .  S
C564        C565   1.424       .  A
C565        C566   1.392       .  A
C565        N572   1.428       .  S
C566        C567   1.388       .  A
C566        H571   1.084       .  S
C567        C568   1.413       .  A
C568        N569   1.429       .  S
N569       O1597   1.262       .  A
N569        O574   1.262       .  A
H570       C1587   1.083       .  S
N572        O576   1.262       .  A
N572        O575   1.261       .  A
O573       N1593   1.262       .  A
C577        C578   1.415       .  A
C577        C582   1.400       .  A
C577        H584   1.083       .  S
C578        C579   1.412       .  A
C579        C580   1.406       .  A
C579        N586   1.428       .  S
C580        C581   1.408       .  A
C580        H585   1.084       .  S
C581        C582   1.401       .  A
C582        N583   1.427       .  S
N583        O587   1.261       .  A
N583        O588   1.262       .  A
N586        O590   1.262       .  A
N586        O589   1.261       .  A
C591        C592   1.411       .  A
C591       C1620   1.407   1_554  A
C591        H598   1.084       .  S
C592        C593   1.404   1_455  A
C593       C1618   1.400   1_554  A
C593        N600   1.428       .  S
C594        C595   1.420       .  A
C594       C1617   1.404   1_655  A
C594        H599   1.083       .  S
C595        C596   1.404       .  A
C596       C1615   1.405   1_655  A
C596        N597   1.428       .  S
N597        O601   1.262   1_655  A
N597        O602   1.262       .  A
N600        O604   1.262       .  A
N600        O603   1.262       .  A
C605        C606   1.397   1_655  A
C605        C610   1.402       .  A
C605        H612   1.084   1_655  S
C606        C607   1.418   1_455  A
C607        C608   1.399       .  A
C607        N614   1.429   1_655  S
C608        C609   1.393       .  A
C608        H613   1.084       .  S
C609        C610   1.414       .  A
C610        N611   1.426       .  S
N611        O615   1.262       .  A
N611        O616   1.262       .  A
N614        O618   1.262   1_455  A
N614        O617   1.262       .  A
C619        C620   1.394       .  A
C619        C624   1.399       .  A
C619        H626   1.084       .  S
C620        C621   1.420       .  A
C621        C622   1.399       .  A
C621        N628   1.430       .  S
C622        C623   1.396       .  A
C622        H627   1.084       .  S
C623        C624   1.422       .  A
C624        N625   1.429       .  S
N625        O629   1.262       .  A
N625        O630   1.262       .  A
N628       O1656   1.261       .  A
N628        O631   1.262       .  A
O632       N1652   1.262       .  A
C633        C634   1.411       .  A
C633        C638   1.400       .  A
C633        H640   1.083       .  S
C634        C635   1.408       .  A
C635        C636   1.405       .  A
C635        N642   1.428       .  S
C636        C637   1.410       .  A
C636        H641   1.084       .  S
C637        C638   1.404       .  A
C638        N639   1.428       .  S
N639        O643   1.262       .  A
N639        O644   1.262       .  A
N642        O646   1.262       .  A
N642        O645   1.262       .  A
C647        C648   1.412       .  A
C647        C652   1.403       .  A
C647        H654   1.084       .  S
C648        C649   1.404       .  A
C649        C650   1.401       .  A
C649        N656   1.428       .  S
C650        C651   1.413       .  A
C650        H655   1.083       .  S
C651        C652   1.407       .  A
C652        N653   1.429       .  S
N653        O657   1.262       .  A
N653        O658   1.262       .  A
N656        O660   1.262       .  A
N656        O659   1.262       .  A
C661        C662   1.399       .  A
C661        C666   1.399       .  A
C661        H668   1.085       .  S
C662        C663   1.410       .  A
C663        C664   1.402       .  A
C663        N670   1.428       .  S
C664        C665   1.402       .  A
C664        H669   1.084       .  S
C665        C666   1.413       .  A
C666        N667   1.428       .  S
N667        O671   1.262       .  A
N667        O672   1.261       .  A
N670        O674   1.262       .  A
N670        O673   1.261       .  A
C675        C676   1.401       .  A
C675        C680   1.404       .  A
C675        H682   1.084       .  S
C676        C677   1.406       .  A
C677        C678   1.397       .  A
C677        N684   1.416       .  S
C678        C679   1.397       .  A
C678        H683   1.084       .  S
C679        C680   1.416       .  A
C680        N681   1.429       .  S
N681        O685   1.262       .  A
N681        O686   1.262       .  A
N684        O688   1.260   1_455  A
N684        O687   1.262       .  A
C689        C690   1.412       .  A
C689        C694   1.404       .  A
C689        H696   1.083       .  S
C690        C691   1.403       .  A
C691        C692   1.405       .  A
C691        N698   1.427       .  S
C692        C693   1.415       .  A
C692        H697   1.083       .  S
C693        C694   1.407       .  A
C694        N695   1.429       .  S
N695        O699   1.262       .  A
N695        O700   1.262       .  A
N698        O702   1.262       .  A
N698        O701   1.262       .  A
C703        C704   1.410       .  A
C703        C708   1.399       .  A
C703        H710   1.083       .  S
C704        C705   1.407       .  A
C705        C706   1.402       .  A
C705        N712   1.427       .  S
C706        C707   1.410       .  A
C706        H711   1.084       .  S
C707        C708   1.404       .  A
C708        N709   1.428       .  S
N709        O713   1.262       .  A
N709        O714   1.262       .  A
N712        O716   1.262       .  A
N712        O715   1.262       .  A
C717        C718   1.397       .  A
C717        C722   1.400       .  A
C717        H724   1.084       .  S
C718        C719   1.420       .  A
C719        C720   1.402       .  A
C719        N726   1.429       .  S
C720        C721   1.398       .  A
C720        H725   1.084       .  S
C721        C722   1.419       .  A
C722        N723   1.428       .  S
N723        O727   1.261       .  A
N723        O728   1.262       .  A
N726        O730   1.262       .  A
N726        O729   1.262       .  A
C731        C732   1.399       .  A
C731        C736   1.402       .  A
C731        H738   1.085       .  S
C732        C733   1.413       .  A
C733        C734   1.400       .  A
C733        N740   1.428       .  S
C734        C735   1.398       .  A
C734        H739   1.085       .  S
C735        C736   1.414       .  A
C736        N737   1.428       .  S
N737        O741   1.262       .  A
N737        O742   1.260       .  A
N740        O744   1.262       .  A
N740        O743   1.261       .  A
C745        C746   1.400       .  A
C745        C750   1.403       .  A
C745        H752   1.083       .  S
C746        C747   1.423       .  A
C747        C748   1.401       .  A
C747        N754   1.423       .  S
C748        C749   1.391       .  A
C748        H753   1.084       .  S
C749        C750   1.421       .  A
C750        N751   1.430       .  S
N751        O755   1.262       .  A
N751        O756   1.262       .  A
N754        O758   1.262       .  A
N754        O757   1.261       .  A
C759        C760   1.390       .  A
C759        C764   1.397       .  A
C759        H766   1.084       .  S
C760        C761   1.415       .  A
C761        C762   1.402       .  A
C761        N768   1.430       .  S
C762        C763   1.403       .  A
C762        H767   1.083       .  S
C763        C764   1.425       .  A
C764        N765   1.428       .  S
N765        O769   1.262       .  A
N765        O770   1.262       .  A
N768        O772   1.261       .  A
N768        O771   1.262       .  A
C773        C774   1.399       .  A
C773        C778   1.398       .  A
C773        H780   1.084       .  S
C774        C775   1.415       .  A
C775        C776   1.400       .  A
C775        N782   1.429       .  S
C776        C777   1.398       .  A
C776        H781   1.084       .  S
C777        C778   1.415       .  A
C778        N779   1.429       .  S
N779        O783   1.261       .  A
N779        O784   1.262       .  A
N782        O786   1.262       .  A
N782        O785   1.261       .  A
C787        C788   1.408       .  A
C787        C792   1.398       .  A
C787        H794   1.084   1_545  S
C788        C789   1.402       .  A
C789        C790   1.405       .  A
C789        N796   1.429       .  S
C790        C791   1.415       .  A
C790        H795   1.083       .  S
C791        C792   1.406       .  A
C792        N793   1.428       .  S
N793        O797   1.262       .  A
N793        O798   1.262       .  A
N796        O800   1.262       .  A
N796        O799   1.262       .  A
C801        C802   1.414       .  A
C801        C806   1.405       .  A
C801        H808   1.083       .  S
C802        C803   1.406       .  A
C803        C804   1.402       .  A
C803        N810   1.428       .  S
C804        C805   1.411       .  A
C804        H809   1.084       .  S
C805        C806   1.404       .  A
C806        N807   1.428       .  S
N807        O811   1.261       .  A
N807        O812   1.262       .  A
N810        O814   1.262       .  A
N810        O813   1.262       .  A
C815        C816   1.414       .  A
C815        C820   1.397       .  A
C815        H822   1.083       .  S
C816        C817   1.406       .  A
C817        C818   1.404       .  A
C817        N824   1.428       .  S
C818        C819   1.415       .  A
C818        H823   1.083       .  S
C819        C820   1.404       .  A
C820        N821   1.428       .  S
N821        O825   1.262       .  A
N821        O826   1.262       .  A
N824        O828   1.262       .  A
N824        O827   1.262       .  A
C829        C830   1.404       .  A
C829        C834   1.394       .  A
C829        H836   1.085       .  S
C830        C831   1.407       .  A
C831        C832   1.402       .  A
C831        N838   1.427       .  S
C832        C833   1.408       .  A
C832        H837   1.085       .  S
C833        C834   1.407       .  A
C834        N835   1.424       .  S
N835        O839   1.261       .  A
N835        O840   1.261       .  A
N838        O842   1.262       .  A
N838        O841   1.260       .  A
C843        C844   1.412       .  A
C843        C848   1.403       .  A
C843        H850   1.084       .  S
C844        C845   1.406       .  A
C845        C846   1.402       .  A
C845        N852   1.428       .  S
C846        C847   1.411       .  A
C846        H851   1.084       .  S
C847        C848   1.406       .  A
C848        N849   1.428       .  S
N849        O853   1.262       .  A
N849        O854   1.261       .  A
N852        O856   1.262       .  A
N852        O855   1.262       .  A
C857        C858   1.395       .  A
C857        C862   1.404       .  A
C857        H864   1.084       .  S
C858        C859   1.414       .  A
C859        C860   1.400       .  A
C859        N866   1.428       .  S
C860        C861   1.402       .  A
C860        H865   1.083       .  S
C861        C862   1.424       .  A
C862        N863   1.428       .  S
N863        O867   1.262       .  A
N863        O868   1.262       .  A
N866        O870   1.262       .  A
N866        O869   1.262       .  A
C871        C872   1.411       .  A
C871        C876   1.400       .  A
C871        H878   1.084       .  S
C872        C873   1.405       .  A
C873        C874   1.399       .  A
C873        N880   1.429       .  S
C874        C875   1.410       .  A
C874        H879   1.083       .  S
C875        C876   1.404       .  A
C876        N877   1.428       .  S
N877        O881   1.262       .  A
N877       O1906   1.262       .  A
N880        O884   1.261       .  A
N880        O883   1.262       .  A
O882       N1901   1.262   1_554  A
C885        C890   1.399   1_556  A
C885       C1910   1.415   1_565  A
C885       H1916   1.083       .  S
C886        C887   1.406   1_455  A
C886       C1909   1.411   1_545  A
C887       C1912   1.401       .  A
C887        N894   1.428       .  S
C888        C889   1.415   1_545  A
C888       C1911   1.401       .  A
C888        H893   1.083       .  S
C889        C890   1.403   1_655  A
C890        N891   1.428       .  S
N891        O895   1.262   1_554  A
N891        O896   1.262       .  A
H892       C1909   1.084       .  S
N894        O898   1.262       .  A
N894        O897   1.261       .  A
C899        C900   1.417   1_655  A
C899        C904   1.399       .  A
C899        H906   1.085       .  S
C900        C901   1.405   1_545  A
C901        C902   1.399       .  A
C901        N908   1.428       .  S
C902        C903   1.412   1_455  A
C902        H907   1.085       .  S
C903        C904   1.398   1_565  A
C904        N905   1.429       .  S
N905        O909   1.262   1_545  A
N905        O910   1.261       .  A
N908        O912   1.262       .  A
N908        O911   1.260       .  A
C913        C914   1.407       .  A
C913        C918   1.402       .  A
C913        H920   1.084       .  S
C914        C915   1.403       .  A
C915        C916   1.398       .  A
C915        N922   1.428       .  S
C916        C917   1.413       .  A
C916        H921   1.083       .  S
C917        C918   1.410       .  A
C918        N919   1.428       .  S
N919        O923   1.261       .  A
N919        O924   1.262       .  A
N922        O926   1.262       .  A
N922        O925   1.261       .  A
C927        C928   1.412       .  A
C927        C932   1.394       .  A
C927        H934   1.083       .  S
C928        C929   1.404       .  A
C929        C930   1.399       .  A
C929        N936   1.428       .  S
C930        C931   1.409       .  A
C930        H935   1.083       .  S
C931        C932   1.403       .  A
C932        N933   1.430       .  S
N933        O937   1.262       .  A
N933        O938   1.262       .  A
N936        O940   1.261       .  A
N936        O939   1.262       .  A
C941        C942   1.409       .  A
C941        C946   1.401       .  A
C941        H948   1.084       .  S
C942        C943   1.402       .  A
C943        C944   1.403       .  A
C943        N950   1.427       .  S
C944        C945   1.415       .  A
C944        H949   1.083       .  S
C945        C946   1.410       .  A
C946       N1971   1.428       .  S
N947       C1970   1.429       .  S
N947        O951   1.262       .  A
N947        O952   1.262       .  A
N950        O954   1.261       .  A
N950        O953   1.262       .  A
C955        C956   1.412   1_545  A
C955        C960   1.402       .  A
C955        H962   1.084       .  S
C956        C957   1.405       .  A
C957        C958   1.401       .  A
C957        N964   1.429       .  S
C958        C959   1.413   1_565  A
C958        H963   1.084       .  S
C959        C960   1.405       .  A
C960        N961   1.428       .  S
N961        O965   1.262       .  A
N961        O966   1.262       .  A
N964        O968   1.262       .  A
N964        O967   1.262       .  A
C969        C970   1.405   1_565  A
C969        C974   1.397       .  A
C969        H976   1.082       .  S
C970       C1995   1.406       .  A
C971        C972   1.400       .  A
C971       C1994   1.408   1_554  A
C971        N978   1.428       .  S
C972        C973   1.405   1_545  A
C972        H977   1.085       .  S
C973       C1998   1.404       .  A
C974       C1997   1.406       .  A
C974        N975   1.429       .  S
N975        O979   1.262       .  A
N975        O980   1.262       .  A
N978        O982   1.262       .  A
N978        O981   1.262       .  A
C983        C984   1.393       .  A
C983        C988   1.401       .  A
C983        H990   1.084       .  S
C984        C985   1.416       .  A
C985        C986   1.403       .  A
C985        N992   1.429       .  S
C986        C987   1.401       .  A
C986        H991   1.084       .  S
C987        C988   1.424       .  A
C988        N989   1.428       .  S
N989        O993   1.261   1_545  A
N989        O994   1.262   1_545  A
N992       O2020   1.262       .  A
N992        O995   1.262       .  A
O996       N2016   1.261       .  A
C997        C998   1.412       .  A
C997       C1002   1.404       .  A
C997       H1004   1.084       .  S
C998        C999   1.401       .  A
C999       C1000   1.395       .  A
C999       N1006   1.428       .  S
C1000      C1001   1.411       .  A
C1000      H1005   1.083       .  S
C1001      C1002   1.406       .  A
C1002      N1003   1.429       .  S
N1003      O1007   1.262       .  A
N1003      O1008   1.262       .  A
N1006      O1010   1.262       .  A
N1006      O1009   1.262       .  A
C1011      C1012   1.413       .  A
C1011      C1016   1.402       .  A
C1011      H1018   1.083       .  S
C1012      C1013   1.404       .  A
C1013      C1014   1.401       .  A
C1013      N1020   1.424       .  S
C1014      C1015   1.408       .  A
C1014      H1019   1.082       .  S
C1015      C1016   1.407       .  A
C1016      N1017   1.429       .  S
N1017      O1021   1.262       .  A
N1017      O1022   1.262       .  A
N1020      O1024   1.262       .  A
N1020      O1023   1.261       .  A
O1025      C1040   1.252   1_565  A
O1025     Al1033   1.870       .  S
C1026      O1036   1.255       .  A
C1026      O1027   1.270       .  A
C1026      C2039   1.485       .  S
O1027     Al1029   1.958       .  S
O1028      C1030   1.246       .  A
O1028     Al1029   1.837       .  S
Al1029     O1037   1.839       .  S
Al1029     O1039   1.977   1_565  S
Al1029     O1038   1.762       .  S
C1030      O1043   1.278       .  A
C1030      C1997   1.461       .  S
O1031      C1041   1.253       .  A
O1031     Al1033   1.848       .  S
O1032      C1045   1.255       .  A
O1032     Al1042   1.861       .  S
Al1033     O1046   1.972       .  S
Al1033     O1043   2.000       .  S
Al1033     O1038   1.760       .  S
O1034      C1041   1.277       .  A
O1034     Al1042   1.985       .  S
O1035      C1044   1.279       .  A
O1035     Al1042   1.983       .  S
O1036     Al1042   1.863       .  S
O1037      C1044   1.254       .  A
O1038     Al1042   1.764       .  S
O1039      C1040   1.276       .  A
C1040      C2011   1.489       .  S
C1041      C1966   1.483       .  S
C1044      C1980   1.477       .  S
C1045      O1046   1.275       .  A
C1045      C2022   1.478       .  S
O1047      C1062   1.250   1_545  A
O1047     Al1055   1.862       .  S
C1048      O1058   1.258   1_655  A
C1048      O1049   1.271       .  A
C1048      C1938   1.488       .  S
O1049     Al1051   1.955   1_655  S
O1050      C1052   1.245       .  A
O1050     Al1051   1.819       .  S
Al1051     O1059   1.832       .  S
Al1051     O1061   1.979   1_545  S
Al1051     O1060   1.762       .  S
C1052      O1065   1.283       .  A
C1052      C1924   1.484       .  S
O1053      C1063   1.255       .  A
O1053     Al1055   1.860       .  S
O1054      C1067   1.260       .  A
O1054     Al1064   1.876       .  S
Al1055     O1068   1.968       .  S
Al1055     O1065   2.027       .  S
Al1055     O1060   1.757       .  S
O1056      C1063   1.276       .  A
O1056     Al1064   1.979       .  S
O1057      C1066   1.283       .  A
O1057     Al1064   2.002       .  S
O1058     Al1064   1.881       .  S
O1059      C1066   1.253       .  A
O1060     Al1064   1.766       .  S
O1061      C1062   1.273       .  A
C1062      C1952   1.479       .  S
C1063      C1882   1.472       .  S
C1066      C1910   1.487       .  S
C1067      O1068   1.276       .  A
C1067      C1896   1.479       .  S
O1069      C1084   1.253       .  A
O1069     Al1077   1.870       .  S
C1070      O1080   1.256       .  A
C1070      O1071   1.272       .  A
C1070      C1826   1.485       .  S
O1071     Al1073   1.963       .  S
O1072      C1074   1.248       .  A
O1072     Al1073   1.820       .  S
Al1073     O1081   1.842       .  S
Al1073     O1083   1.985       .  S
Al1073     O1082   1.759       .  S
C1074      O1087   1.279       .  A
C1074      C1854   1.477       .  S
O1075      C1085   1.258       .  A
O1075     Al1077   1.862       .  S
O1076      C1089   1.258       .  A
O1076     Al1086   1.866       .  S
Al1077     O1090   1.962       .  S
Al1077     O1087   2.013       .  S
Al1077     O1082   1.760       .  S
O1078      C1085   1.277       .  A
O1078     Al1086   1.981       .  S
O1079      C1088   1.281       .  A
O1079     Al1086   1.996       .  S
O1080     Al1086   1.877       .  S
O1081      C1088   1.256       .  A
O1082     Al1086   1.763       .  S
O1083      C1084   1.273       .  A
C1084      C2025   1.484       .  S
C1085      C1871   1.487       .  S
C1088      C1840   1.486       .  S
C1089      O1090   1.274       .  A
C1089      C1955   1.475       .  S
O1091      C1106   1.278       .  A
O1091     Al1099   1.970       .  S
C1092      O1102   1.273       .  A
C1092      O1093   1.256   1_455  A
C1092      C1868   1.485       .  S
O1093     Al1095   1.867       .  S
O1094      C1096   1.274       .  A
O1094     Al1095   1.978       .  S
Al1095     O1103   1.994       .  S
Al1095     O1105   1.869       .  S
Al1095     O1104   1.769       .  S
C1096      O1109   1.253       .  A
C1096      C1801   1.469       .  S
O1097      C1107   1.282       .  A
O1097     Al1099   2.014       .  S
O1098      C1111   1.274       .  A
O1098     Al1108   1.984   1_545  S
Al1099     O1112   1.865       .  S
Al1099     O1109   1.857       .  S
Al1099     O1104   1.754       .  S
O1100      C1107   1.244       .  A
O1100     Al1108   1.819       .  S
O1101      C1110   1.255       .  A
O1101     Al1108   1.843       .  S
O1102     Al1108   1.959   1_455  S
O1103      C1110   1.281       .  A
O1104     Al1108   1.764       .  S
O1105      C1106   1.259       .  A
C1106      C1784   1.477       .  S
C1107      C1927   1.479       .  S
C1110      C1913   1.480       .  S
C1111      O1112   1.251   1_545  A
C1111      C1812   1.483       .  S
O1113      C1128   1.275       .  A
O1113     Al1121   1.972       .  S
C1114      O1124   1.270       .  A
C1114      O1115   1.254       .  A
C1114      C1770   1.488       .  S
O1115     Al1117   1.877       .  S
O1116      C1118   1.280       .  A
O1116     Al1117   2.003       .  S
Al1117     O1125   1.998       .  S
Al1117     O1127   1.871       .  S
Al1117     O1126   1.765       .  S
C1118      O1131   1.255       .  A
C1118      C1941   1.496       .  S
O1119      C1129   1.277       .  A
O1119     Al1121   1.999       .  S
O1120      C1133   1.274       .  A
O1120     Al1130   1.983       .  S
Al1121     O1134   1.879       .  S
Al1121     O1131   1.850       .  S
Al1121     O1126   1.762       .  S
O1122      C1129   1.247       .  A
O1122     Al1130   1.839       .  S
O1123      C1132   1.255       .  A
O1123     Al1130   1.851       .  S
O1124     Al1130   1.952       .  S
O1125      C1132   1.286       .  A
O1126     Al1130   1.766       .  S
O1127      C1128   1.256       .  A
C1128      C1815   1.487       .  S
C1129      C1756   1.460       .  S
C1132      C1745   1.496       .  S
C1133      O1134   1.258       .  A
C1133      C1728   1.490       .  S
O1135      C1150   1.276       .  A
O1135     Al1143   1.977       .  S
C1136      O1146   1.271       .  A
C1136      O1137   1.253       .  A
C1136      C1885   1.491       .  S
O1137     Al1139   1.873       .  S
O1138      C1140   1.278       .  A
O1138     Al1139   1.974       .  S
Al1139     O1147   1.992       .  S
Al1139     O1149   1.879       .  S
Al1139     O1148   1.766       .  S
C1140      O1153   1.255       .  A
C1140      C1703   1.475       .  S
O1141      C1151   1.274       .  A
O1141     Al1143   1.991       .  S
O1142      C1155   1.276       .  A
O1142     Al1152   1.989       .  S
Al1143     O1156   1.879       .  S
Al1143     O1153   1.867       .  S
Al1143     O1148   1.763       .  S
O1144      C1151   1.246       .  A
O1144     Al1152   1.848       .  S
O1145      C1154   1.256       .  A
O1145     Al1152   1.847       .  S
O1146     Al1152   1.950       .  S
O1147      C1154   1.281       .  A
O1148     Al1152   1.760       .  S
O1149      C1150   1.259       .  A
C1150      C1717   1.494       .  S
C1151      C1686   1.461       .  S
C1154      C1675   1.496       .  S
C1155      O1156   1.260       .  A
C1155      C1658   1.488       .  S
O1157      C1172   1.279       .  A
O1157     Al1165   1.978       .  S
C1158      O1168   1.276       .  A
C1158      O1159   1.253   1_655  A
C1158      C1602   1.495       .  S
O1159     Al1161   1.850       .  S
O1160      C1162   1.280       .  A
O1160     Al1161   2.007       .  S
Al1161     O1169   2.011       .  S
Al1161     O1171   1.862       .  S
Al1161     O1170   1.776       .  S
C1162      O1175   1.257       .  A
C1162      C1829   1.499       .  S
O1163      C1173   1.278       .  A
O1163     Al1165   2.010       .  S
O1164      C1177   1.275       .  A
O1164     Al1174   1.993       .  S
Al1165     O1178   1.874       .  S
Al1165     O1175   1.867       .  S
Al1165     O1170   1.754       .  S
O1166      C1173   1.240       .  A
O1166     Al1174   1.817       .  S
O1167      C1176   1.252       .  A
O1167     Al1174   1.841       .  S
O1168     Al1174   1.962   1_655  S
O1169      C1176   1.283       .  A
O1170     Al1174   1.760       .  S
O1171      C1172   1.258       .  A
C1172      C1647   1.477       .  S
C1173      C1630   1.464       .  S
C1176      C1616   1.500       .  S
C1177      O1178   1.256       .  A
C1177      C1714   1.490       .  S
O1179      C1194   1.253       .  A
O1179     Al1187   1.871       .  S
C1180      O1190   1.254   1_455  A
C1180      O1181   1.273       .  A
C1180      C1700   1.475       .  S
O1181     Al1183   1.962   1_455  S
O1182      C1184   1.247       .  A
O1182     Al1183   1.821       .  S
Al1183     O1191   1.837       .  S
Al1183     O1193   1.957       .  S
Al1183     O1192   1.764       .  S
C1184      O1197   1.274       .  A
C1184      C1633   1.468       .  S
O1185      C1195   1.255       .  A
O1185     Al1187   1.868       .  S
O1186      C1199   1.258       .  A
O1186     Al1196   1.871       .  S
Al1187     O1200   1.955       .  S
Al1187     O1197   1.997       .  S
Al1187     O1192   1.769       .  S
O1188      C1195   1.275       .  A
O1188     Al1196   1.982       .  S
O1189      C1198   1.279       .  A
O1189     Al1196   2.002       .  S
O1190     Al1196   1.864       .  S
O1191      C1198   1.250       .  A
O1192     Al1196   1.780       .  S
O1193      C1194   1.271       .  A
C1194      C1577   1.479       .  S
C1195      C1773   1.476       .  S
C1198      C1619   1.486       .  S
C1199      O1200   1.274       .  A
C1199      C1591   1.470       .  S
O1201     Al1209   1.958       .  S
C1202      O1212   1.271       .  A
C1202      C1969   1.482       .  S
O1203     Al1205   1.872   1_554  S
O1204      C1206   1.275       .  A
Al1205     O1213   1.982       .  S
Al1205     O1215   1.863       .  S
C1206      O1219   1.253       .  A
C1206      C1560   1.471       .  S
O1207      C1217   1.277       .  A
O1207     Al1209   1.999       .  S
O1208      C1221   1.276       .  A
O1208     Al1218   1.978       .  S
Al1209     O1222   1.856       .  S
Al1209     O1219   1.857       .  S
Al1209     O1214   1.761       .  S
O1210      C1217   1.245       .  A
O1210     Al1218   1.831       .  S
O1211      C1220   1.255       .  A
O1212     Al1218   1.953       .  S
O1213      C1220   1.278       .  A
O1214     Al1218   1.757       .  S
O1215      C1216   1.259       .  A
C1216      C1549   1.469       .  S
C1217      C1857   1.471       .  S
C1220      C1843   1.485       .  S
C1221      O1222   1.250       .  A
C1221      C1644   1.479       .  S
O1223      C1238   1.254       .  A
O1223     Al1231   1.870       .  S
C1224      O1234   1.257       .  A
C1224      O1225   1.269       .  A
O1226      C1228   1.244       .  A
O1226     Al1227   1.837   1_556  S
Al1227     O1237   1.973   1_554  S
C1228      O1241   1.277       .  A
C1228      C1759   1.460       .  S
O1229      C1239   1.252       .  A
O1229     Al1231   1.850       .  S
O1230      C1243   1.259       .  A
O1230     Al1240   1.873       .  S
Al1231     O1241   1.998       .  S
O1232     Al1240   1.992       .  S
O1233      C1242   1.283       .  A
O1233     Al1240   1.989       .  S
O1234     Al1240   1.872       .  S
O1235      C1242   1.255       .  A
O1236     Al1240   1.761       .  S
O1237      C1238   1.275       .  A
C1238      C1588   1.487       .  S
C1239      C1504   1.479       .  S
C1242      C1742   1.495       .  S
C1243      O1244   1.274       .  A
C1243      C1521   1.479       .  S
O1245      C1260   1.275       .  A
O1245     Al1253   1.969       .  S
C1246      O1256   1.269       .  A
C1246      O1247   1.254       .  A
C1246      C1507   1.485       .  S
O1247     Al1249   1.864       .  S
O1248      C1250   1.277       .  A
O1248     Al1249   1.990       .  S
Al1249     O1257   1.991       .  S
Al1249     O1259   1.879       .  S
Al1249     O1258   1.765       .  S
C1250      O1263   1.254       .  A
C1250      C1490   1.477       .  S
O1251      C1261   1.276       .  A
O1251     Al1253   1.998       .  S
O1252      C1265   1.276       .  A
O1252     Al1262   1.985       .  S
Al1253     O1266   1.864       .  S
Al1253     O1263   1.849       .  S
Al1253     O1258   1.753       .  S
O1254      C1261   1.245       .  A
O1254     Al1262   1.844       .  S
O1255      C1264   1.254       .  A
O1255     Al1262   1.849       .  S
O1256     Al1262   1.947       .  S
O1257      C1264   1.284       .  A
O1258     Al1262   1.765       .  S
O1259      C1260   1.260       .  A
C1260      C1661   1.486       .  S
C1261      C1476   1.461       .  S
C1264      C1462   1.493       .  S
C1265      O1266   1.255       .  A
C1265      C1546   1.480       .  S
O1267      C1282   1.257   1_554  A
O1267     Al1275   1.875   1_554  S
C1268      O1278   1.253       .  A
C1268      O1269   1.267       .  A
O1270      C1272   1.246       .  A
O1270     Al1271   1.849   1_556  S
Al1271     O1281   1.983   1_554  S
C1272      O1285   1.277       .  A
C1272      C1689   1.464       .  S
O1273      C1283   1.255       .  A
O1273     Al1275   1.862       .  S
O1274      C1287   1.255       .  A
O1274     Al1284   1.861       .  S
Al1275     O1285   1.999       .  S
O1276     Al1284   1.974       .  S
O1277      C1286   1.282       .  A
O1277     Al1284   1.989       .  S
O1278     Al1284   1.862       .  S
O1279      C1286   1.258       .  A
O1280     Al1284   1.765       .  S
O1281      C1282   1.274       .  A
C1282      C1899   1.488       .  S
C1283      C1451   1.468       .  S
C1286      C1672   1.494       .  S
C1287      O1288   1.275       .  A
C1287      C2008   1.471       .  S
O1289      C1304   1.274       .  A
O1289     Al1297   1.969       .  S
C1290      O1300   1.268       .  A
C1290      O1291   1.256       .  A
C1290      C1448   1.484       .  S
O1291     Al1293   1.887       .  S
O1292      C1294   1.277       .  A
O1292     Al1293   1.978       .  S
Al1293     O1301   1.987       .  S
Al1293     O1303   1.870       .  S
Al1293     O1302   1.761       .  S
C1294      O1307   1.258       .  A
C1294      C1532   1.479       .  S
O1295      C1305   1.281       .  A
O1295     Al1297   2.016       .  S
O1296      C1309   1.275       .  A
O1296     Al1306   1.974   1_565  S
Al1297     O1310   1.893       .  S
Al1297     O1307   1.864       .  S
Al1297     O1302   1.767       .  S
O1298      C1305   1.244       .  A
O1298     Al1306   1.843       .  S
O1299      C1308   1.254       .  A
O1299     Al1306   1.836       .  S
O1300     Al1306   1.939       .  S
O1301      C1308   1.282       .  A
O1302     Al1306   1.760       .  S
O1303      C1304   1.257       .  A
C1304      C1731   1.478       .  S
C1305      C1994   1.468       .  S
C1308      C1983   1.480       .  S
C1309      O1310   1.255   1_565  A
C1309      C1434   1.474       .  S
O1311     Al1319   1.965       .  S
C1312      O1322   1.271       .  A
C1312      C1392   1.481       .  S
O1313     Al1315   1.873   1_554  S
O1314      C1316   1.279       .  A
Al1315     O1323   1.995       .  S
Al1315     O1325   1.878       .  S
C1316      O1329   1.254       .  A
C1316      C2036   1.480       .  S
O1317      C1327   1.274       .  A
O1317     Al1319   1.995       .  S
O1318      C1331   1.278       .  A
O1318     Al1328   1.987       .  S
Al1319     O1332   1.873       .  S
Al1319     O1329   1.853       .  S
Al1319     O1324   1.763       .  S
O1320      C1327   1.244       .  A
O1320     Al1328   1.841       .  S
O1321      C1330   1.256       .  A
O1322     Al1328   1.947       .  S
O1323      C1330   1.281       .  A
O1324     Al1328   1.757       .  S
O1325      C1326   1.257       .  A
C1326      C1437   1.476       .  S
C1327      C1423   1.460       .  S
C1330      C1409   1.490       .  S
C1331      O1332   1.255       .  A
C1331      C1787   1.492       .  S
O1333      C1348   1.254       .  A
O1333     Al1341   1.871       .  S
C1334      O1344   1.252       .  A
C1334      O1335   1.270       .  A
C1334      C1798   1.481       .  S
O1335     Al1337   1.947       .  S
O1336      C1338   1.246       .  A
O1336     Al1337   1.848       .  S
Al1337     O1345   1.852       .  S
Al1337     O1347   1.988       .  S
Al1337     O1346   1.759       .  S
C1338      O1351   1.275       .  A
C1338      C1420   1.462       .  S
O1339      C1349   1.252       .  A
O1339     Al1341   1.846       .  S
O1340      C1353   1.252       .  A
O1340     Al1350   1.855       .  S
Al1341     O1354   1.962       .  S
Al1341     O1351   1.999       .  S
Al1341     O1346   1.762       .  S
O1342      C1349   1.279       .  A
O1342     Al1350   1.998       .  S
O1343      C1352   1.283       .  A
O1343     Al1350   1.993       .  S
O1344     Al1350   1.866       .  S
O1345      C1352   1.257       .  A
O1346     Al1350   1.770       .  S
O1347      C1348   1.277       .  A
C1348      C1378   1.491       .  S
C1349      C1605   1.479       .  S
C1352      C1406   1.489       .  S
C1353      O1354   1.275       .  A
C1353      C1574   1.473       .  S
O1355      C1370   1.259       .  A
O1355     Al1363   1.877       .  S
C1356      O1366   1.250       .  A
C1356      O1357   1.271       .  A
C1356      C1563   1.491       .  S
O1357     Al1359   1.947       .  S
O1358      C1360   1.245       .  A
O1358     Al1359   1.847       .  S
Al1359     O1367   1.850       .  S
Al1359     O1369   1.983       .  S
Al1359     O1368   1.763       .  S
C1360      O1373   1.277       .  A
C1360      C1479   1.463       .  S
O1361      C1371   1.255       .  A
O1361     Al1363   1.861       .  S
O1362      C1375   1.255       .  A
O1362     Al1372   1.866       .  S
Al1363     O1376   1.969       .  S
Al1363     O1373   2.001       .  S
Al1363     O1368   1.761       .  S
O1364      C1371   1.277       .  A
O1364     Al1372   1.982       .  S
O1365      C1374   1.284       .  A
O1365     Al1372   1.992       .  S
O1366     Al1372   1.866       .  S
O1367      C1374   1.254       .  A
O1368     Al1372   1.764       .  S
O1369      C1370   1.275       .  A
C1370      C1518   1.483       .  S
C1371      C1395   1.471       .  S
C1374      C1465   1.494       .  S
C1375      O1376   1.275       .  A
C1375      C1381   1.477       .  S
C1377      C1378   1.400       .  A
C1377      C1382   1.403       .  A
C1377      H1384   1.083       .  S
C1378      C1379   1.425       .  A
C1379      C1380   1.400       .  A
C1379      N1386   1.428       .  S
C1380      C1381   1.392       .  A
C1380      H1385   1.084       .  S
C1381      C1382   1.418       .  A
C1382      N1383   1.430       .  S
N1383      O1387   1.262       .  A
N1383      O1388   1.262       .  A
N1386      O1390   1.262       .  A
N1386      O1389   1.262       .  A
C1391      C1392   1.403       .  A
C1391      C1396   1.402       .  A
C1391      H1398   1.083       .  S
C1392      C1393   1.414       .  A
C1393      C1394   1.402       .  A
C1394      C1395   1.401       .  A
C1394      H1399   1.083       .  S
C1395      C1396   1.411       .  A
C1396      N1397   1.429       .  S
N1397      O1401   1.262       .  A
N1397      O1402   1.261       .  A
N1400      O1404   1.260       .  A
N1400      O1403   1.261   1_554  A
C1405      C1406   1.413       .  A
C1405      C1410   1.406       .  A
C1405      H1412   1.084       .  S
C1406      C1407   1.405       .  A
C1407      C1408   1.403       .  A
C1407      N1414   1.428       .  S
C1408      C1409   1.412       .  A
C1408      H1413   1.084       .  S
C1409      C1410   1.407       .  A
C1410      N1411   1.428       .  S
N1411      O1415   1.262       .  A
N1411      O1416   1.262       .  A
N1414      O1418   1.262       .  A
N1414      O1417   1.261       .  A
C1419      C1420   1.407       .  A
C1419      C1424   1.399       .  A
C1419      H1426   1.084       .  S
C1420      C1421   1.404       .  A
C1421      C1422   1.400       .  A
C1421      N1428   1.428       .  S
C1422      C1423   1.406       .  A
C1422      H1427   1.085       .  S
C1423      C1424   1.404       .  A
C1424      N1425   1.428       .  S
N1425      O1429   1.262       .  A
N1425      O1430   1.262       .  A
N1428      O1432   1.261       .  A
N1428      O1431   1.262       .  A
C1433      C1434   1.393       .  A
C1433      C1438   1.385       .  A
C1433      H1440   1.103       .  S
C1434      C1435   1.413       .  A
C1435      C1436   1.407       .  A
C1435      N1442   1.428       .  S
C1436      C1437   1.408       .  A
C1437      C1438   1.409       .  A
C1438      N1439   1.426   1_556  S
N1439      O1443   1.262       .  A
N1439      O1444   1.262       .  A
N1442      O1446   1.262       .  A
N1442      O1445   1.262       .  A
C1447      C1448   1.404       .  A
C1447      C1452   1.400       .  A
C1447      H1454   1.083       .  S
C1448      C1449   1.416       .  A
C1449      C1450   1.403       .  A
C1449      N1456   1.428       .  S
C1450      C1451   1.398       .  A
C1450      H1455   1.084       .  S
C1451      C1452   1.411       .  A
C1452      N1453   1.430       .  S
N1453      O1457   1.262       .  A
N1453      O1458   1.261   1_556  A
N1456      O1460   1.259       .  A
N1456      O1459   1.261       .  A
C1461      C1462   1.397       .  A
C1461      C1466   1.402       .  A
C1461      H1468   1.084       .  S
C1462      C1463   1.425       .  A
C1463      C1464   1.401       .  A
C1463      N1470   1.428       .  S
C1464      C1465   1.396       .  A
C1464      H1469   1.083       .  S
C1465      C1466   1.425       .  A
C1466      N1467   1.428       .  S
N1467      O1471   1.262       .  A
N1467      O1472   1.262       .  A
N1470      O1474   1.262       .  A
N1470      O1473   1.262       .  A
C1475      C1476   1.402       .  A
C1475      C1480   1.400   1_556  A
C1475      H1482   1.085       .  S
C1477      C1478   1.401       .  A
C1477      N1484   1.428       .  S
C1478      C1479   1.401       .  A
C1478      H1483   1.085       .  S
C1480      N1481   1.428       .  S
N1481      O1485   1.262   1_554  A
N1484      O1488   1.262       .  A
N1484      O1487   1.260       .  A
C1489      C1490   1.409       .  A
C1489      C1494   1.395       .  A
C1489      H1496   1.084       .  S
C1490      C1491   1.404       .  A
C1491      C1492   1.403       .  A
C1491      N1498   1.428       .  S
C1492      C1493   1.413       .  A
C1492      H1497   1.083       .  S
C1493      C1494   1.405       .  A
C1494      N1495   1.429       .  S
N1495      O1500   1.262       .  A
N1498      O1502   1.262       .  A
N1498      O1501   1.261       .  A
C1503      C1504   1.410       .  A
C1503      C1508   1.399       .  A
C1503      H1510   1.084       .  S
C1504      C1505   1.401       .  A
C1505      C1506   1.403       .  A
C1506      C1507   1.414       .  A
C1506      H1511   1.082       .  S
C1507      C1508   1.406       .  A
C1508      N1509   1.428       .  S
N1509      O1513   1.262       .  A
N1509      O1514   1.262       .  A
N1512      O1516   1.261       .  A
N1512      O1515   1.262       .  A
C1517      C1518   1.410       .  A
C1517      C1522   1.399       .  A
C1517      H1524   1.084       .  S
C1518      C1519   1.407       .  A
C1519      C1520   1.402       .  A
C1519      N1526   1.426       .  S
C1520      C1521   1.408       .  A
C1520      H1525   1.084       .  S
C1521      C1522   1.404       .  A
C1522      N1523   1.426       .  S
N1523      O1527   1.262       .  A
N1523      O1528   1.262       .  A
N1526      O1530   1.261       .  A
N1526      O1529   1.262       .  A
C1531      C1532   1.407       .  A
C1531      C1536   1.404       .  A
C1531      H1538   1.084       .  S
C1532      C1533   1.401       .  A
C1533      C1534   1.399       .  A
C1533      N1540   1.423       .  S
C1534      C1535   1.410       .  A
C1535      C1536   1.412       .  A
C1536      N1537   1.427       .  S
N1537      O1541   1.262   1_556  A
N1537      O1542   1.262       .  A
N1540      O1544   1.262       .  A
N1540      O1543   1.262       .  A
C1545      C1546   1.413       .  A
C1545      C1550   1.396       .  A
C1545      H1552   1.083       .  S
C1546      C1547   1.405       .  A
C1547      C1548   1.400       .  A
C1547      N1554   1.428       .  S
C1548      C1549   1.408       .  A
C1548      H1553   1.083       .  S
C1549      C1550   1.400       .  A
N1551      O1555   1.262       .  A
N1551      O1556   1.261       .  A
N1554      O1558   1.262       .  A
N1554      O1557   1.262       .  A
C1559      C1560   1.394       .  A
C1559      C1564   1.403       .  A
C1559      H1566   1.084       .  S
C1560      C1561   1.414       .  A
C1561      C1562   1.399       .  A
C1561      N1568   1.429       .  S
C1562      C1563   1.401       .  A
C1562      H1567   1.084       .  S
C1563      C1564   1.425       .  A
C1564      N1565   1.429       .  S
N1565      O1569   1.261       .  A
N1565      O1570   1.262       .  A
N1568      O1572   1.262       .  A
C1573      C1574   1.392       .  A
C1573      C1578   1.396       .  A
C1573      H1580   1.084       .  S
C1574      C1575   1.418       .  A
C1575      C1576   1.400       .  A
C1575      N1582   1.429       .  S
C1576      C1577   1.398       .  A
C1576      H1581   1.084       .  S
C1577      C1578   1.422       .  A
C1578      N1579   1.429       .  S
N1579      O1583   1.262       .  A
N1579      O1584   1.262       .  A
N1582      O1586   1.261       .  A
N1582      O1585   1.262       .  A
C1587      C1588   1.402       .  A
C1587      C1592   1.401       .  A
C1588      C1589   1.424       .  A
C1589      C1590   1.397       .  A
C1589      N1596   1.428       .  S
C1590      C1591   1.392       .  A
C1590      H1595   1.084       .  S
C1591      C1592   1.414       .  A
C1592      N1593   1.429       .  S
N1593      O1598   1.262       .  A
N1596      O1600   1.262       .  A
N1596      O1599   1.261       .  A
C1601      C1602   1.418       .  A
C1601      C1606   1.403       .  A
C1601      H1608   1.083       .  S
C1602      C1603   1.408       .  A
C1603      C1604   1.403       .  A
C1603      N1610   1.428       .  S
C1604      C1605   1.410       .  A
C1604      H1609   1.084       .  S
C1605      C1606   1.400       .  A
C1606      N1607   1.427       .  S
N1607      O1611   1.262       .  A
N1607      O1612   1.262       .  A
N1610      O1614   1.262       .  A
N1610      O1613   1.262       .  A
C1615      C1616   1.420       .  A
C1615      H1622   1.083       .  S
C1616      C1617   1.404       .  A
C1617      N1624   1.428       .  S
C1618      C1619   1.411       .  A
C1618      H1623   1.084       .  S
C1619      C1620   1.409   1_655  A
C1620      N1621   1.428       .  S
N1621      O1625   1.262       .  A
N1621      O1626   1.262   1_556  A
N1624      O1628   1.262   1_455  A
N1624      O1627   1.262       .  A
C1629      C1630   1.395       .  A
C1629      C1634   1.401   1_455  A
C1629      H1636   1.084       .  S
C1630      C1631   1.418   1_455  A
C1631      C1632   1.400       .  A
C1631      N1638   1.428   1_655  S
C1632      C1633   1.394       .  A
C1632      H1637   1.083       .  S
C1633      C1634   1.417       .  A
C1634      N1635   1.427       .  S
N1635      O1639   1.262       .  A
N1635      O1640   1.261       .  A
N1638      O1642   1.262   1_455  A
N1638      O1641   1.262       .  A
C1643      C1644   1.395       .  A
C1643      C1648   1.399       .  A
C1643      H1650   1.084       .  S
C1644      C1645   1.423       .  A
C1645      C1646   1.399       .  A
C1645      N1652   1.429       .  S
C1646      C1647   1.393       .  A
C1646      H1651   1.084       .  S
C1647      C1648   1.419       .  A
C1648      N1649   1.427       .  S
N1649      O1653   1.261       .  A
N1649      O1654   1.261       .  A
N1652      O1655   1.262       .  A
C1657      C1658   1.410       .  A
C1657      C1662   1.399       .  A
C1657      H1664   1.083       .  S
C1658      C1659   1.408       .  A
C1659      C1660   1.407       .  A
C1659      N1666   1.428       .  S
C1660      C1661   1.411       .  A
C1660      H1665   1.084       .  S
C1661      C1662   1.405       .  A
C1662      N1663   1.428       .  S
N1663      O1667   1.262       .  A
N1663      O1668   1.262       .  A
N1666      O1670   1.262       .  A
N1666      O1669   1.262       .  A
C1671      C1672   1.416       .  A
C1671      C1676   1.403       .  A
C1671      H1678   1.083       .  S
C1672      C1673   1.406       .  A
C1673      C1674   1.401       .  A
C1673      N1680   1.428       .  S
C1674      C1675   1.416       .  A
C1674      H1679   1.083       .  S
C1675      C1676   1.407       .  A
C1676      N1677   1.428       .  S
N1677      O1681   1.262       .  A
N1677      O1682   1.262       .  A
N1680      O1684   1.262       .  A
N1680      O1683   1.262       .  A
C1685      C1686   1.400       .  A
C1685      C1690   1.400       .  A
C1685      H1692   1.085       .  S
C1686      C1687   1.408       .  A
C1687      C1688   1.399       .  A
C1687      N1694   1.428       .  S
C1688      C1689   1.402       .  A
C1688      H1693   1.084       .  S
C1689      C1690   1.413       .  A
C1690      N1691   1.428       .  S
N1691      O1695   1.262       .  A
N1691      O1696   1.261       .  A
N1694      O1698   1.261       .  A
N1694      O1697   1.260       .  A
C1699      C1700   1.399       .  A
C1699      C1704   1.404       .  A
C1699      H1706   1.084       .  S
C1700      C1701   1.406       .  A
C1701      C1702   1.397       .  A
C1701      N1708   1.417       .  S
C1702      C1703   1.397       .  A
C1702      H1707   1.084       .  S
C1703      C1704   1.416       .  A
C1704      N1705   1.428       .  S
N1705      O1709   1.262       .  A
N1705      O1710   1.262       .  A
N1708      O1712   1.261   1_455  A
N1708      O1711   1.262       .  A
C1713      C1714   1.410       .  A
C1713      C1718   1.401       .  A
C1713      H1720   1.083       .  S
C1714      C1715   1.407       .  A
C1715      C1716   1.409       .  A
C1715      N1722   1.428       .  S
C1716      C1717   1.415       .  A
C1716      H1721   1.083       .  S
C1717      C1718   1.407       .  A
C1718      N1719   1.428       .  S
N1719      O1723   1.262       .  A
N1719      O1724   1.262       .  A
N1722      O1726   1.262       .  A
N1722      O1725   1.262       .  A
C1727      C1728   1.414       .  A
C1727      C1732   1.403       .  A
C1727      H1734   1.083       .  S
C1728      C1729   1.409       .  A
C1729      C1730   1.401       .  A
C1729      N1736   1.428       .  S
C1730      C1731   1.407       .  A
C1730      H1735   1.084       .  S
C1731      C1732   1.404       .  A
C1732      N1733   1.428       .  S
N1733      O1737   1.262       .  A
N1733      O1738   1.262       .  A
N1736      O1740   1.262       .  A
N1736      O1739   1.262       .  A
C1741      C1742   1.398       .  A
C1741      C1746   1.402       .  A
C1741      H1748   1.084       .  S
C1742      C1743   1.425       .  A
C1743      C1744   1.403       .  A
C1743      N1750   1.429       .  S
C1744      C1745   1.399       .  A
C1744      H1749   1.083       .  S
C1745      C1746   1.426       .  A
C1746      N1747   1.430       .  S
N1747      O1751   1.262       .  A
N1747      O1752   1.262       .  A
N1750      O1754   1.262       .  A
N1750      O1753   1.262       .  A
C1755      C1756   1.401       .  A
C1755      C1760   1.401       .  A
C1755      H1762   1.084       .  S
C1756      C1757   1.409       .  A
C1757      C1758   1.398       .  A
C1757      N1764   1.428       .  S
C1758      C1759   1.401       .  A
C1758      H1763   1.084       .  S
C1759      C1760   1.413       .  A
C1760      N1761   1.429       .  S
N1761      O1765   1.262       .  A
N1761      O1766   1.261       .  A
N1764      O1768   1.262       .  A
N1764      O1767   1.261       .  A
C1769      C1770   1.402       .  A
C1769      C1774   1.404       .  A
C1769      H1776   1.084       .  S
C1770      C1771   1.416       .  A
C1771      C1772   1.403       .  A
C1771      N1778   1.427       .  S
C1772      C1773   1.398       .  A
C1772      H1777   1.084       .  S
C1773      C1774   1.415       .  A
C1774      N1775   1.429       .  S
N1775      O1779   1.262       .  A
N1775      O1780   1.262       .  A
N1778      O1782   1.260       .  A
N1778      O1781   1.262       .  A
C1783      C1784   1.392       .  A
C1783      C1788   1.399       .  A
C1783      H1790   1.084       .  S
C1784      C1785   1.416       .  A
C1785      C1786   1.404       .  A
C1785      N1792   1.430       .  S
C1786      C1787   1.402       .  A
C1786      H1791   1.084       .  S
C1787      C1788   1.425       .  A
C1788      N1789   1.429       .  S
N1789      O1793   1.262       .  A
N1789      O1794   1.262       .  A
N1792      O1796   1.262       .  A
N1792      O1795   1.262       .  A
C1797      C1798   1.402       .  A
C1797      C1802   1.401       .  A
C1797      H1804   1.084       .  S
C1798      C1799   1.416       .  A
C1799      C1800   1.400       .  A
C1799      N1806   1.428       .  S
C1800      C1801   1.398       .  A
C1800      H1805   1.084       .  S
C1801      C1802   1.414       .  A
C1802      N1803   1.429       .  S
N1803      O1807   1.261       .  A
N1803      O1808   1.262       .  A
N1806      O1810   1.262       .  A
N1806      O1809   1.261       .  A
C1811      C1812   1.410       .  A
C1811      C1816   1.398       .  A
C1811      H1818   1.083       .  S
C1812      C1813   1.403       .  A
C1813      C1814   1.408       .  A
C1813      N1820   1.429       .  S
C1814      C1815   1.416       .  A
C1814      H1819   1.083       .  S
C1815      C1816   1.404       .  A
C1816      N1817   1.428       .  S
N1817      O1821   1.262       .  A
N1817      O1822   1.262       .  A
N1820      O1824   1.262       .  A
N1820      O1823   1.262       .  A
C1825      C1826   1.409       .  A
C1825      C1830   1.408       .  A
C1825      H1832   1.084       .  S
C1826      C1827   1.403       .  A
C1827      C1828   1.402       .  A
C1827      N1834   1.428       .  S
C1828      C1829   1.416       .  A
C1828      H1833   1.084       .  S
C1829      C1830   1.411       .  A
C1830      N1831   1.427       .  S
N1831      O1835   1.262       .  A
N1831      O1836   1.261       .  A
N1834      O1838   1.262       .  A
N1834      O1837   1.262       .  A
C1839      C1840   1.412       .  A
C1839      C1844   1.398       .  A
C1839      H1846   1.083       .  S
C1840      C1841   1.406       .  A
C1841      C1842   1.405       .  A
C1841      N1848   1.428       .  S
C1842      C1843   1.414       .  A
C1842      H1847   1.083       .  S
C1843      C1844   1.404       .  A
C1844      N1845   1.428       .  S
N1845      O1849   1.262       .  A
N1845      O1850   1.262       .  A
N1848      O1852   1.262       .  A
N1848      O1851   1.262       .  A
C1853      C1854   1.410       .  A
C1853      C1858   1.395       .  A
C1853      H1860   1.085       .  S
C1854      C1855   1.407       .  A
C1855      C1856   1.403       .  A
C1855      N1862   1.428       .  S
C1856      C1857   1.411       .  A
C1856      H1861   1.084       .  S
C1857      C1858   1.402       .  A
C1858      N1859   1.427       .  S
N1859      O1863   1.262       .  A
N1859      O1864   1.261       .  A
N1862      O1866   1.262       .  A
N1862      O1865   1.260       .  A
C1867      C1868   1.412       .  A
C1867      C1872   1.403       .  A
C1867      H1874   1.084       .  S
C1868      C1869   1.405       .  A
C1869      C1870   1.401       .  A
C1869      N1876   1.428       .  S
C1870      C1871   1.412       .  A
C1870      H1875   1.084       .  S
C1871      C1872   1.407       .  A
C1872      N1873   1.428       .  S
N1873      O1877   1.262       .  A
N1873      O1878   1.262       .  A
N1876      O1880   1.262       .  A
N1876      O1879   1.262       .  A
C1881      C1882   1.396       .  A
C1881      C1886   1.403       .  A
C1881      H1888   1.084       .  S
C1882      C1883   1.413       .  A
C1883      C1884   1.402       .  A
C1883      N1890   1.430       .  S
C1884      C1885   1.403       .  A
C1884      H1889   1.083       .  S
C1885      C1886   1.421       .  A
C1886      N1887   1.428       .  S
N1887      O1891   1.262       .  A
N1887      O1892   1.262       .  A
N1890      O1894   1.262       .  A
N1890      O1893   1.262       .  A
C1895      C1896   1.409       .  A
C1895      C1900   1.405       .  A
C1895      H1902   1.084       .  S
C1896      C1897   1.402       .  A
C1897      C1898   1.400       .  A
C1897      N1904   1.428       .  S
C1898      C1899   1.412       .  A
C1898      H1903   1.083       .  S
C1899      C1900   1.409       .  A
C1900      N1901   1.428       .  S
N1901      O1905   1.262       .  A
N1904      O1908   1.262       .  A
N1904      O1907   1.262       .  A
C1909      C1914   1.399       .  A
C1910      C1911   1.405   1_456  A
C1911      N1918   1.428       .  S
C1912      C1913   1.411   1_545  A
C1912      H1917   1.084       .  S
C1913      C1914   1.405   1_655  A
C1914      N1915   1.428       .  S
N1915      O1919   1.262       .  A
N1915      O1920   1.262       .  A
N1918      O1922   1.262       .  A
N1918      O1921   1.262   1_554  A
C1923      C1924   1.419   1_655  A
C1923      C1928   1.401       .  A
C1923      H1930   1.085       .  S
C1924      C1925   1.406   1_545  A
C1925      C1926   1.402       .  A
C1925      N1932   1.428       .  S
C1926      C1927   1.414   1_455  A
C1926      H1931   1.085       .  S
C1927      C1928   1.399   1_565  A
C1928      N1929   1.428       .  S
N1929      O1933   1.262   1_545  A
N1929      O1934   1.260       .  A
N1932      O1936   1.262       .  A
N1932      O1935   1.261       .  A
C1937      C1938   1.411       .  A
C1937      C1942   1.406       .  A
C1937      H1944   1.084       .  S
C1938      C1939   1.405       .  A
C1939      C1940   1.401       .  A
C1939      N1946   1.428       .  S
C1940      C1941   1.415       .  A
C1940      H1945   1.083       .  S
C1941      C1942   1.407       .  A
C1942      N1943   1.425       .  S
N1943      O1947   1.261       .  A
N1943      O1948   1.262       .  A
N1946      O1950   1.262       .  A
N1946      O1949   1.262       .  A
C1951      C1952   1.412       .  A
C1951      C1956   1.398       .  A
C1951      H1958   1.083       .  S
C1952      C1953   1.403       .  A
C1953      C1954   1.399       .  A
C1953      N1960   1.427       .  S
C1954      C1955   1.409       .  A
C1954      H1959   1.083       .  S
C1955      C1956   1.404       .  A
C1956      N1957   1.429       .  S
N1957      O1961   1.262       .  A
N1957      O1962   1.262       .  A
N1960      O1964   1.262       .  A
N1960      O1963   1.262       .  A
C1965      C1966   1.412       .  A
C1965      C1970   1.399       .  A
C1965      H1972   1.084       .  S
C1966      C1967   1.404       .  A
C1967      C1968   1.402       .  A
C1967      N1974   1.427       .  S
C1968      C1969   1.412       .  A
C1968      H1973   1.084       .  S
C1969      C1970   1.406       .  A
N1971      O1975   1.262       .  A
N1971      O1976   1.262       .  A
N1974      O1978   1.262       .  A
N1974      O1977   1.262       .  A
C1979      C1980   1.411   1_545  A
C1979      C1984   1.397       .  A
C1979      H1986   1.084       .  S
C1980      C1981   1.403       .  A
C1981      C1982   1.400       .  A
C1981      N1988   1.429       .  S
C1982      C1983   1.414   1_565  A
C1982      H1987   1.084       .  S
C1983      C1984   1.402       .  A
C1984      N1985   1.428       .  S
N1985      O1989   1.262       .  A
N1985      O1990   1.262       .  A
N1988      O1992   1.262       .  A
N1988      O1991   1.262       .  A
C1993      C1994   1.408   1_565  A
C1993      C1998   1.398   1_556  A
C1993      H2000   1.085       .  S
C1995      C1996   1.402       .  A
C1995      N2002   1.428       .  S
C1996      C1997   1.406   1_545  A
C1996      H2001   1.084       .  S
C1998      N1999   1.429   1_554  S
N1999      O2003   1.262       .  A
N1999      O2004   1.262   1_556  A
N2002      O2006   1.262       .  A
N2002      O2005   1.261       .  A
C2007      C2008   1.392       .  A
C2007      C2012   1.401       .  A
C2007      H2014   1.084       .  S
C2008      C2009   1.415       .  A
C2009      C2010   1.399       .  A
C2009      N2016   1.429       .  S
C2010      C2011   1.400       .  A
C2010      H2015   1.084       .  S
C2011      C2012   1.425       .  A
C2012      N2013   1.428       .  S
N2013      O2017   1.261       .  A
N2013      O2018   1.262   1_545  A
N2016      O2019   1.262       .  A
C2021      C2022   1.410       .  A
C2021      C2026   1.403       .  A
C2021      H2028   1.084       .  S
C2022      C2023   1.402       .  A
C2023      C2024   1.397       .  A
C2023      N2030   1.426       .  S
C2024      C2025   1.412       .  A
C2024      H2029   1.083       .  S
C2025      C2026   1.407       .  A
C2026      N2027   1.428       .  S
N2027      O2031   1.262       .  A
N2027      O2032   1.262       .  A
N2030      O2034   1.261       .  A
N2030      O2033   1.262       .  A
C2035      C2036   1.411       .  A
C2035      C2040   1.401       .  A
C2035      H2042   1.084       .  S
C2036      C2037   1.401       .  A
C2037      C2038   1.400       .  A
C2037      N2044   1.426       .  S
C2038      C2039   1.412       .  A
C2038      H2043   1.082       .  S
C2039      C2040   1.408       .  A
C2040      N2041   1.429       .  S
N2041      O2045   1.262       .  A
N2041      O2046   1.262       .  A
N2044      O2048   1.262       .  A
N2044      O2047   1.262       .  A
