geometry optimzed in LAMMPS
_audit_creation_date              2020-12-01 
_audit_creation_method            'lammps2cif' 
_symmetry_space_group_name_H-M    'P1' 
_symmetry_Int_Tables_number       1 
_symmetry_cell_setting            triclinic 
loop_ 
_symmetry_equiv_pos_as_xyz 
  x,y,z 
_cell_length_a                    72.12177127 
_cell_length_b                    72.18522255823953 
_cell_length_c                    30.628449907860666 
_cell_angle_alpha                 90.04113447867898 
_cell_angle_beta                  89.79220153492793 
_cell_angle_gamma                 89.9642033940669 
loop_ 
_atom_site_label 
_atom_site_type_symbol 
_atom_site_fract_x 
_atom_site_fract_y 
_atom_site_fract_z 
_atom_site_charge 
O1          O  0.97686375  0.13622814  0.55418299    -0.85500
O2          O  0.01335254  0.12698621  0.55138489    -0.82500
C3          C  0.02753177  0.11765916  0.54149846     0.98000
O4          O  0.02810284  0.10835816  0.50643991    -0.82500
O5          O  0.00103072  0.08008661  0.50270433    -0.85200
C6          C  0.98504228  0.07296230  0.49923162     1.02500
O7          O  0.97216779  0.08214966  0.48205016    -0.78000
O8          O  0.96735117  0.10751394  0.54795754    -0.78100
C9          C  0.97112610  0.12137637  0.57155688     1.02500
O10         O  0.98005344  0.15119517  0.46608428    -0.85500
O11         O  0.01736813  0.14359407  0.46762769    -0.82500
C12         C  0.02202197  0.13678844  0.43118074     0.98000
O13         O  0.01726116  0.12047653  0.42116793    -0.82600
O14         O  0.99212988  0.09205515  0.41560716    -0.85200
C15         C  0.97913196  0.10090604  0.39733206     1.02500
O16         O  0.96799449  0.11070177  0.41951041    -0.78000
O17         O  0.95654366  0.13439087  0.48545690    -0.78100
C18         C  0.96277022  0.14873192  0.46738795     1.02400
Cr19       Cr  0.99646977  0.13791390  0.50801528     1.93700
Cr20       Cr  0.00839653  0.10127213  0.46346055     1.93200
Cr21       Cr  0.96761964  0.10917940  0.48380683     1.39100
O22         O  0.99108931  0.11610075  0.48523141    -1.23200
O23         O  0.97970872  0.91479233  0.49362990    -0.85500
O24         O  0.96546402  0.93453728  0.56210298    -0.82500
C25         C  0.95078432  0.94014913  0.54412567     0.98000
O26         O  0.93774111  0.92891132  0.53601693    -0.82500
O27         O  0.91977776  0.89405125  0.52524960    -0.85200
C28         C  0.92306434  0.88695228  0.48817959     1.02500
O29         O  0.93957818  0.88444788  0.47599417    -0.78000
O30         O  0.97766858  0.88519068  0.47730306    -0.78100
C31         C  0.98055979  0.90183701  0.46602268     1.02500
O32         O  0.99546301  0.88858817  0.55288003    -0.85500
O33         O  0.97628452  0.90555487  0.62046253    -0.82500
C34         C  0.96252064  0.91132043  0.64227792     0.98000
O35         O  0.94829369  0.91726291  0.62262561    -0.82600
O36         O  0.93405186  0.88306302  0.60793141    -0.85200
C37         C  0.93399232  0.86666784  0.59362986     1.02500
O38         O  0.93901493  0.86314924  0.55491182    -0.78000
O39         O  0.97653669  0.86533306  0.55979890    -0.78100
C40         C  0.99244518  0.87210516  0.56455274     1.02400
Cr41       Cr  0.97786925  0.90996890  0.55672503     1.93700
Cr42       Cr  0.93632872  0.90538875  0.57082596     1.93200
Cr43       Cr  0.95822540  0.87610076  0.51898526     1.39100
O44         O  0.95733450  0.89714826  0.54839779    -1.23200
O45         O  0.11420654  0.22818413  0.67214335    -0.85500
O46         O  0.10284875  0.19731817  0.71348482    -0.82500
C47         C  0.11604440  0.18643711  0.70433081     0.98000
O48         O  0.13173710  0.18839456  0.72184352    -0.82500
O49         O  0.16053545  0.20611234  0.76862212    -0.85200
C50         C  0.16896668  0.21709604  0.74334480     1.02500
O51         O  0.16010695  0.22915652  0.72282927    -0.78000
O52         O  0.13266924  0.25080209  0.69262973    -0.78100
C53         C  0.12510906  0.24118103  0.66292895     1.02500
O54         O  0.09912410  0.25112890  0.73883100    -0.85500
O55         O  0.09175221  0.21954852  0.78667017    -0.82500
C56         C  0.09370347  0.20403240  0.80492084     0.98000
O57         O  0.10763734  0.19397353  0.79598976    -0.82600
O58         O  0.13492977  0.21381196  0.83511680    -0.85200
C59         C  0.14519993  0.22746527  0.84320226     1.02500
O60         O  0.15077136  0.23823426  0.81310263    -0.78000
O61         O  0.12177738  0.25837981  0.78250921    -0.78100
C62         C  0.10612423  0.26188509  0.76672840     1.02400
Cr63       Cr  0.10357275  0.22403737  0.72974684     1.93700
Cr64       Cr  0.13321618  0.20204379  0.77799997     1.93200
Cr65       Cr  0.14026054  0.24272577  0.75284146     1.39100
O66         O  0.12576817  0.22303384  0.75362389    -1.23200
O67         O  0.33072339  0.23357640  0.80001503    -0.85500
O68         O  0.30972395  0.24118630  0.72797647    -0.82500
C69         C  0.30118506  0.25438102  0.74586680     0.98000
O70         O  0.30915862  0.26982122  0.75096542    -0.82500
O71         O  0.33902273  0.29487168  0.75968067    -0.85200
C72         C  0.34650141  0.29384391  0.79695999     1.02500
O73         O  0.35315892  0.27872803  0.81001763    -0.78000
O74         O  0.35926261  0.24173912  0.81546634    -0.78100
C75         C  0.34328826  0.23646748  0.82787629     1.02500
O76         O  0.35997652  0.22114674  0.74458848    -0.85500
O77         O  0.34074226  0.23459702  0.67286831    -0.82500
C78         C  0.33293978  0.24642898  0.64855840     0.98000
O79         O  0.32372682  0.25960534  0.66552740    -0.82600
O80         O  0.35337067  0.28186260  0.67860382    -0.85200
C81         C  0.36937348  0.28563889  0.69234770     1.02500
O82         O  0.37422783  0.28112340  0.73060881    -0.78000
O83         O  0.37908781  0.24367455  0.73185308    -0.78100
C84         C  0.37540186  0.22667089  0.73043622     1.02400
Cr85       Cr  0.33586680  0.23412309  0.73660259     1.93700
Cr86       Cr  0.33200932  0.27527264  0.71592400     1.93200
Cr87       Cr  0.36500340  0.26095016  0.76994548     1.39100
O88         O  0.34432359  0.25699756  0.74107963    -1.23200
O89         O  0.83977543  0.72733445  0.34459678    -0.85500
O90         O  0.81557194  0.73312595  0.27772584    -0.82500
C91         C  0.80630214  0.74653699  0.29264858     0.98000
O92         O  0.81421054  0.76209729  0.29814497    -0.82500
O93         O  0.84426508  0.78830998  0.30245382    -0.85200
C94         C  0.85364705  0.78787842  0.33739985     1.02500
O95         O  0.86108690  0.77294584  0.34956592    -0.78000
O96         O  0.86869350  0.73582665  0.35296125    -0.78100
C97         C  0.85314888  0.73141811  0.36923363     1.02500
O98         O  0.86741389  0.71526810  0.28245965    -0.85500
O99         O  0.84437470  0.72756332  0.21597087    -0.82500
C100        C  0.83494118  0.73895268  0.19374845     0.98000
O101        O  0.82673116  0.75233306  0.21231031    -0.82600
O102        O  0.85633981  0.77571155  0.21870855    -0.85200
C103        C  0.87266143  0.78000157  0.22956607     1.02500
O104        O  0.87876814  0.77575863  0.26684183    -0.78000
O105        O  0.88486595  0.73864256  0.26563402    -0.78100
C106        C  0.88184273  0.72150479  0.26435078     1.02400
Cr107      Cr  0.84239391  0.72734777  0.28050815     1.93700
Cr108      Cr  0.83630835  0.76836616  0.26018350     1.93200
Cr109      Cr  0.87181030  0.75532647  0.30711820     1.39100
O110        O  0.85013126  0.75058509  0.28284232    -1.23200
O111        O  0.61107686  0.74493868  0.22698108    -0.85500
O112        O  0.61311373  0.70743633  0.22208417    -0.82500
C113        C  0.61675630  0.69089941  0.23136986     0.98000
O114        O  0.62465624  0.68716909  0.26732524    -0.82500
O115        O  0.65837109  0.70816214  0.28500607    -0.85200
C116        C  0.66810390  0.72179249  0.29790397     1.02500
O117        O  0.66027718  0.73574607  0.31431470    -0.78000
O118        O  0.64035070  0.74875163  0.24447941    -0.78100
C119        C  0.62756417  0.74910458  0.21642796     1.02500
O120        O  0.59063200  0.74118135  0.30817358    -0.85500
O121        O  0.59125766  0.70381123  0.30008263    -0.82500
C122        C  0.59515132  0.69733289  0.33728798     0.98000
O123        O  0.61154820  0.69785780  0.35142174    -0.82600
O124        O  0.64358783  0.71546369  0.37102050    -0.85200
C125        C  0.63730229  0.72948843  0.39127009     1.02500
O126        O  0.63029556  0.74297347  0.37056844    -0.78000
O127        O  0.61252933  0.76169090  0.30256160    -0.78100
C128        C  0.59597856  0.75764369  0.31153962     1.02400
Cr129      Cr  0.60311575  0.72434921  0.26659029     1.93700
Cr130      Cr  0.63398805  0.70363356  0.31639625     1.93200
Cr131      Cr  0.63500247  0.74578115  0.30717926     1.39100
O132        O  0.62400642  0.72440273  0.29658559    -1.23200
O133        O  0.47122248  0.62706076  0.08743258    -0.85500
O134        O  0.50842257  0.61981511  0.08671799    -0.82500
C135        C  0.52401834  0.61423564  0.07352552     0.98000
O136        O  0.52549195  0.60691813  0.03594268    -0.82500
O137        O  0.49984874  0.57728611  0.01715332    -0.85200
C138        C  0.48478128  0.56977751  0.00534740     1.02500
O139        O  0.47144146  0.57966911  0.99276074    -0.78000
O140        O  0.46313725  0.59911656  0.06735341    -0.78100
C141        C  0.46603343  0.61080201  0.09729346     1.02500
O142        O  0.47648416  0.64875737  0.00737047    -0.85500
O143        O  0.51355821  0.64274103  0.01223900    -0.82500
C144        C  0.51876450  0.63899113  0.97383624     0.98000
O145        O  0.51464305  0.62375968  0.95627836    -0.82600
O146        O  0.49226753  0.59515869  0.93474996    -0.85200
C147        C  0.47913877  0.60440621  0.91793395     1.02500
O148        O  0.46705815  0.61204701  0.94207280    -0.78000
O149        O  0.45292315  0.63041588  0.01428118    -0.78100
C150        C  0.45955233  0.64559983  0.00132119     1.02400
Cr151      Cr  0.49198400  0.63321017  0.04627098     1.93700
Cr152      Cr  0.50674330  0.60142224  0.98854214     1.93200
Cr153      Cr  0.46514548  0.60586402  0.00493862     1.39100
O154        O  0.48817595  0.61342348  0.01353598    -1.23200
O155        O  0.47519431  0.40836009  0.95333159    -0.85500
O156        O  0.46484846  0.43074204  0.02167811    -0.82500
C157        C  0.44958617  0.43662601  0.00767206     0.98000
O158        O  0.43590632  0.42583743  0.00394038    -0.82500
O159        O  0.41669032  0.39185842  0.99710044    -0.85200
C160        C  0.41934794  0.38357810  0.96097059     1.02500
O161        O  0.43542251  0.37864658  0.94974287    -0.78000
O162        O  0.47298141  0.37817314  0.94593037    -0.78100
C163        C  0.47494879  0.39413106  0.92950801     1.02500
O164        O  0.49253871  0.38377997  0.01329554    -0.85500
O165        O  0.47705075  0.40347173  0.08045712    -0.82500
C166        C  0.46454209  0.40978736  0.10515572     0.98000
O167        O  0.44893863  0.41475004  0.08974047    -0.82600
O168        O  0.43132354  0.38167756  0.08056323    -0.85200
C169        C  0.43046209  0.36500475  0.06870014     1.02500
O170        O  0.43595729  0.36002024  0.03140180    -0.78000
O171        O  0.47363596  0.36189112  0.03264238    -0.78100
C172        C  0.48974908  0.36851936  0.03209847     1.02400
Cr173      Cr  0.47592496  0.40575060  0.01703224     1.93700
Cr174      Cr  0.43463973  0.40295280  0.04063649     1.93200
Cr175      Cr  0.45457341  0.37125947  0.99171095     1.39100
O176        O  0.45477854  0.39333891  0.01634007    -1.23200
O177        O  0.11214635  0.77552023  0.85150903    -0.85500
O178        O  0.10330735  0.80877065  0.81661435    -0.82500
C179        C  0.11640867  0.81956249  0.82725277     0.98000
O180        O  0.13244144  0.81772899  0.81076197    -0.82500
O181        O  0.16174534  0.80044827  0.76144206    -0.85200
C182        C  0.16979610  0.78847361  0.78487549     1.02500
O183        O  0.16031401  0.77632461  0.80361857    -0.78000
O184        O  0.13195528  0.75429205  0.82888909    -0.78100
C185        C  0.12285337  0.76216638  0.85922905     1.02500
O186        O  0.09826458  0.75625197  0.77752000    -0.85500
O187        O  0.09278916  0.79018426  0.73687705    -0.82500
C188        C  0.09523551  0.80647892  0.72330311     0.98000
O189        O  0.10933618  0.81557631  0.73537836    -0.82600
O190        O  0.13601474  0.79557485  0.69354128    -0.85200
C191        C  0.14536646  0.78155458  0.68281575     1.02500
O192        O  0.15135174  0.77030349  0.71141981    -0.78000
O193        O  0.12235504  0.74972104  0.73726260    -0.78100
C194        C  0.10617477  0.74608030  0.74953518     1.02400
Cr195      Cr  0.10334095  0.78276185  0.79377016     1.93700
Cr196      Cr  0.13441510  0.80571354  0.75245473     1.93200
Cr197      Cr  0.14041216  0.76419871  0.77064396     1.39100
O198        O  0.12615465  0.78413907  0.77270054    -1.23200
O199        O  0.33276505  0.78016361  0.72699615    -0.85500
O200        O  0.31289708  0.76922480  0.79840908    -0.82500
C201        C  0.30493062  0.75609372  0.77901250     0.98000
O202        O  0.31380930  0.74134218  0.77105901    -0.82500
O203        O  0.34480369  0.71835500  0.75732375    -0.85200
C204        C  0.35218134  0.72015596  0.72012850     1.02500
O205        O  0.35904283  0.73550772  0.70881026    -0.78000
O206        O  0.36127731  0.77340597  0.70642318    -0.78100
C207        C  0.34488548  0.77869294  0.69733858     1.02500
O208        O  0.36153097  0.79320389  0.78226287    -0.85500
O209        O  0.34393359  0.77622255  0.85275049    -0.82500
C210        C  0.33662898  0.76345947  0.87532898     0.98000
O211        O  0.32862399  0.75001013  0.85669380    -0.82600
O212        O  0.35955345  0.73003229  0.83852650    -0.85200
C213        C  0.37596962  0.72821606  0.82473384     1.02500
O214        O  0.38065727  0.73428281  0.78746047    -0.78000
O215        O  0.38261980  0.77202415  0.78845875    -0.78100
C216        C  0.37758900  0.78857810  0.79373185     1.02400
Cr217      Cr  0.33858268  0.77810352  0.78949809     1.93700
Cr218      Cr  0.33742497  0.73638152  0.80373462     1.93200
Cr219      Cr  0.36931777  0.75407460  0.75003362     1.39100
O220        O  0.34852524  0.75596161  0.78064021    -1.23200
O221        O  0.97275484  0.87843954  0.97948690    -0.85500
O222        O  0.01028177  0.88379817  0.97963239    -0.82500
C223        C  0.02585883  0.89008909  0.99064067     0.98000
O224        O  0.02781681  0.89761988  0.02763633    -0.82500
O225        O  0.00423798  0.92869862  0.03453850    -0.85200
C226        C  0.98920748  0.93755758  0.03948281     1.02500
O227        O  0.97587005  0.93018270  0.05969001    -0.78000
O228        O  0.96538282  0.90732680  0.99350318    -0.78100
C229        C  0.96716079  0.89416380  0.96669084     1.02500
O230        O  0.97581291  0.86011635  0.06330580    -0.85500
O231        O  0.01346116  0.86409520  0.06062232    -0.82500
C232        C  0.01850940  0.86919810  0.09832736     0.98000
O233        O  0.01546621  0.88553528  0.11137660    -0.82600
O234        O  0.99524667  0.91729843  0.12223510    -0.85200
C235        C  0.98155649  0.91031309  0.14229776     1.02500
O236        O  0.96928648  0.90149432  0.12144052    -0.78000
O237        O  0.95350632  0.88013650  0.05558581    -0.78100
C238        C  0.95889983  0.86420396  0.06664348     1.02400
Cr239      Cr  0.99280999  0.87321550  0.02284674     1.93700
Cr240      Cr  0.00930596  0.90650741  0.07204270     1.93200
Cr241      Cr  0.96756942  0.90402036  0.05715374     1.39100
O242        O  0.99000716  0.89449087  0.05057684    -1.23200
O243        O  0.98513261  0.10123557  0.04668159    -0.85500
O244        O  0.97663948  0.08116831  0.97390926    -0.82500
C245        C  0.96287191  0.07251830  0.98901422     0.98000
O246        O  0.94806820  0.08125136  0.99826835    -0.82500
O247        O  0.92381006  0.11281209  0.00930248    -0.85200
C248        C  0.92507232  0.12060257  0.04631417     1.02500
O249        O  0.94072134  0.12537215  0.06045220    -0.78000
O250        O  0.97826774  0.13004288  0.06462214    -0.78100
C251        C  0.98321880  0.11376396  0.07507082     1.02500
O252        O  0.99826716  0.13055272  0.99375282    -0.85500
O253        O  0.98386440  0.11267545  0.92090314    -0.82500
C254        C  0.97163755  0.10525308  0.89707250     0.98000
O255        O  0.95844661  0.09629158  0.91448333    -0.82600
O256        O  0.93782876  0.12685040  0.92897687    -0.85200
C257        C  0.93515191  0.14301953  0.94323940     1.02500
O258        O  0.93897203  0.14715594  0.98231644    -0.78000
O259        O  0.97635918  0.15057074  0.98238720    -0.78100
C260        C  0.99320599  0.14627127  0.98086067     1.02400
Cr261      Cr  0.98450643  0.10704360  0.98418268     1.93700
Cr262      Cr  0.94321191  0.10487614  0.96522396     1.93200
Cr263      Cr  0.95888335  0.13684356  0.02050245     1.39100
O264        O  0.96197450  0.11622530  0.99047313    -1.23200
O265        O  0.47750799  0.61018147  0.56367924    -0.85500
O266        O  0.45718382  0.58097143  0.53697460    -0.82500
C267        C  0.44529757  0.57120246  0.51824240     0.98000
O268        O  0.43343965  0.57877923  0.49361288    -0.82500
O269        O  0.41477751  0.60856954  0.53724865    -0.85200
C270        C  0.41207240  0.62483446  0.55119971     1.02500
O271        O  0.42279889  0.63788161  0.54022539    -0.78000
O272        O  0.45440034  0.62852791  0.58265033    -0.78100
C273        C  0.46803325  0.61854547  0.59277713     1.02500
O274        O  0.48420546  0.61922678  0.47175845    -0.85500
O275        O  0.46507816  0.58892441  0.44513300    -0.82500
C276        C  0.45380234  0.59350146  0.41513151     0.98000
O277        O  0.43968767  0.60309046  0.42349712    -0.82600
O278        O  0.41941458  0.63065147  0.45890529    -0.85200
C279        C  0.42920618  0.64444769  0.44730477     1.02500
O280        O  0.44464970  0.64728892  0.46515410    -0.78000
O281        O  0.47655612  0.64249533  0.51326795    -0.78100
C282        C  0.48730883  0.63531103  0.48547926     1.02400
Cr283      Cr  0.46951212  0.60084799  0.50434655     1.93700
Cr284      Cr  0.42830041  0.60581087  0.48075130     1.93200
Cr285      Cr  0.44959957  0.63735373  0.52364603     1.39100
O286        O  0.44920551  0.61451681  0.50308552    -1.23200
O287        O  0.47864533  0.37893734  0.44080598    -0.85500
O288        O  0.51517118  0.38594359  0.45362528    -0.82500
C289        C  0.52910785  0.39419071  0.46886953     0.98000
O290        O  0.52850629  0.40173052  0.50621318    -0.82500
O291        O  0.50194885  0.43061686  0.51324189    -0.85200
C292        C  0.48604379  0.43795749  0.51676726     1.02500
O293        O  0.47247141  0.42827764  0.52888940    -0.78000
O294        O  0.46920148  0.40727290  0.45513919    -0.78100
C295        C  0.47327776  0.39478864  0.42793744     1.02500
O296        O  0.47793864  0.35910805  0.52473865    -0.85500
O297        O  0.51512089  0.36488858  0.53279220    -0.82500
C298        C  0.51825328  0.36979348  0.57173812     0.98000
O299        O  0.51382689  0.38582067  0.58463937    -0.82600
O300        O  0.48949271  0.41446470  0.59398790    -0.85200
C301        C  0.47566031  0.40512276  0.60680785     1.02500
O302        O  0.46537583  0.39659916  0.58029885    -0.78000
O303        O  0.45561484  0.37735294  0.50586007    -0.78100
C304        C  0.46082973  0.36237693  0.52265493     1.02400
Cr305      Cr  0.49622667  0.37367452  0.48996856     1.93700
Cr306      Cr  0.50731470  0.40729576  0.54694821     1.93200
Cr307      Cr  0.46727107  0.40184023  0.51756840     1.39100
O308        O  0.49058046  0.39433304  0.51783122    -1.23200
O309        O  0.83665318  0.27810136  0.18915058    -0.85500
O310        O  0.81356055  0.27036638  0.25766220    -0.82500
C311        C  0.80450411  0.25774947  0.23909838     0.98000
O312        O  0.81193992  0.24202693  0.23270623    -0.82500
O313        O  0.84161753  0.21574370  0.22342836    -0.85200
C314        C  0.85039480  0.21689009  0.18755102     1.02500
O315        O  0.85752703  0.23210441  0.17633051    -0.78000
O316        O  0.86525390  0.26921231  0.17612679    -0.78100
C317        C  0.84984371  0.27536655  0.16270454     1.02500
O318        O  0.86496485  0.28836811  0.24881682    -0.85500
O319        O  0.84335147  0.27450011  0.31665781    -0.82500
C320        C  0.83385831  0.26302000  0.33852816     0.98000
O321        O  0.82535752  0.24991970  0.31957588    -0.82600
O322        O  0.85483654  0.22685216  0.30714211    -0.85200
C323        C  0.87104954  0.22296501  0.29438894     1.02500
O324        O  0.87659841  0.22767547  0.25684027    -0.78000
O325        O  0.88310208  0.26492908  0.26036257    -0.78100
C326        C  0.88013945  0.28209168  0.26247558     1.02400
Cr327      Cr  0.84021463  0.27622928  0.25267790     1.93700
Cr328      Cr  0.83427330  0.23490814  0.26854139     1.93200
Cr329      Cr  0.86904744  0.24886038  0.21940243     1.39100
O330        O  0.84783935  0.25311602  0.24659289    -1.23200
O331        O  0.61787295  0.28639364  0.32300461    -0.85500
O332        O  0.60636799  0.31838776  0.28777984    -0.82500
C333        C  0.61920401  0.32943736  0.29851462     0.98000
O334        O  0.63501103  0.32854208  0.28055127    -0.82500
O335        O  0.66459274  0.31273590  0.23009203    -0.85200
C336        C  0.67325027  0.30129388  0.25389185     1.02500
O337        O  0.66437559  0.28894283  0.27351219    -0.78000
O338        O  0.63750725  0.26525635  0.29944985    -0.78100
C339        C  0.62864016  0.27309864  0.33025788     1.02500
O340        O  0.60425066  0.26553809  0.25159408    -0.85500
O341        O  0.59623407  0.29831672  0.21007203    -0.82500
C342        C  0.59738862  0.31458624  0.19574684     0.98000
O343        O  0.61097556  0.32478478  0.20640719    -0.82600
O344        O  0.63836763  0.30635696  0.16337984    -0.85200
C345        C  0.64845442  0.29287345  0.15258297     1.02500
O346        O  0.65554313  0.28235588  0.18135725    -0.78000
O347        O  0.62759282  0.26070897  0.20768633    -0.78100
C348        C  0.61189782  0.25623048  0.22170795     1.02400
Cr349      Cr  0.60777016  0.29232520  0.26620406     1.93700
Cr350      Cr  0.63689945  0.31663029  0.22220209     1.93200
Cr351      Cr  0.64521144  0.27568291  0.24087498     1.39100
O352        O  0.63006797  0.29482111  0.24337289    -1.23200
O353        O  0.50271186  0.87726260  0.09531973    -0.85500
O354        O  0.46602406  0.88604474  0.09088772    -0.82500
C355        C  0.45162948  0.89469187  0.07964326     0.98000
O356        O  0.45123841  0.90364989  0.04422068    -0.82500
O357        O  0.47805393  0.93242633  0.04094390    -0.85200
C358        C  0.49391320  0.93982007  0.03654756     1.02500
O359        O  0.50706915  0.93060355  0.02031025    -0.78000
O360        O  0.51252315  0.90585189  0.08673703    -0.78100
C361        C  0.50890665  0.89224588  0.11128047     1.02500
O362        O  0.50021146  0.86117137  0.00799760    -0.85500
O363        O  0.46295284  0.86845693  0.00769126    -0.82500
C364        C  0.45863679  0.87487441  0.97070097     0.98000
O365        O  0.46310735  0.89125555  0.96033735    -0.82600
O366        O  0.48781350  0.92032153  0.95572767    -0.85200
C367        C  0.50008171  0.91095026  0.93633033     1.02500
O368        O  0.51164753  0.90157604  0.95811903    -0.78000
O369        O  0.52348540  0.87865583  0.02528013    -0.78100
C370        C  0.51742664  0.86398369  0.00843734     1.02400
Cr371      Cr  0.48341617  0.87482765  0.04868054     1.93700
Cr372      Cr  0.47126957  0.91088653  0.00233823     1.93200
Cr373      Cr  0.51208459  0.90366767  0.02265252     1.39100
O374        O  0.48868130  0.89647554  0.02490529    -1.23200
O375        O  0.50289306  0.11026525  0.97192394    -0.85500
O376        O  0.52366332  0.08151786  0.00043075    -0.82500
C377        C  0.53546374  0.07200214  0.02023263     0.98000
O378        O  0.54766446  0.07999313  0.04323426    -0.82500
O379        O  0.56633887  0.10752288  0.99199017    -0.85200
C380        C  0.56884215  0.12305714  0.97383873     1.02500
O381        O  0.55859316  0.13677635  0.98297226    -0.78000
O382        O  0.52578835  0.12745929  0.94664834    -0.78100
C383        C  0.51156403  0.11779833  0.94042612     1.02500
O384        O  0.49900866  0.12208807  0.06292888    -0.85500
O385        O  0.51777100  0.09234662  0.09124857    -0.82500
C386        C  0.52901445  0.09848697  0.11961457     0.98000
O387        O  0.54326219  0.10731718  0.10847182    -0.82600
O388        O  0.56385587  0.13255808  0.06522634    -0.85200
C389        C  0.55450147  0.14686866  0.07518098     1.02500
O390        O  0.53874334  0.14933857  0.05877520    -0.78000
O391        O  0.50561722  0.14394111  0.01645829    -0.78100
C392        C  0.49582076  0.13782777  0.04745575     1.02400
Cr393      Cr  0.51228215  0.10249556  0.03117630     1.93700
Cr394      Cr  0.55382186  0.10729325  0.04991863     1.93200
Cr395      Cr  0.53224939  0.13778625  0.00315654     1.39100
O396        O  0.53275893  0.11568807  0.02763857    -1.23200
O397        O  0.14255472  0.77527625  0.33251633    -0.85500
O398        O  0.16517675  0.76874908  0.26306845    -0.82500
C399        C  0.17445019  0.75598760  0.28071986     0.98000
O400        O  0.16730435  0.74012952  0.28630419    -0.82500
O401        O  0.13864232  0.71297629  0.29239936    -0.85200
C402        C  0.13070727  0.71361200  0.32931679     1.02500
O403        O  0.12373575  0.72855363  0.34261745    -0.78000
O404        O  0.11466718  0.76495700  0.34746837    -0.78100
C405        C  0.13024141  0.77103664  0.36019811     1.02500
O406        O  0.11324496  0.78539756  0.27476483    -0.85500
O407        O  0.13456275  0.77269400  0.20452430    -0.82500
C408        C  0.14370262  0.76114139  0.18180371     0.98000
O409        O  0.15383692  0.74934374  0.20077084    -0.82600
O410        O  0.12503643  0.72560543  0.21097311    -0.85200
C411        C  0.10913499  0.72090648  0.22402256     1.02500
O412        O  0.10373298  0.72465079  0.26241026    -0.78000
O413        O  0.09565379  0.76147877  0.26374911    -0.78100
C414        C  0.09805958  0.77871325  0.26209159     1.02400
Cr415      Cr  0.13837770  0.77405995  0.26889678     1.93700
Cr416      Cr  0.14539249  0.73320023  0.24983448     1.93200
Cr417      Cr  0.11088398  0.74535005  0.30209313     1.39100
O418        O  0.13151315  0.75070323  0.27388280    -1.23200
O419        O  0.36148090  0.78522841  0.20819010    -0.85500
O420        O  0.37248217  0.81647384  0.24882786    -0.82500
C421        C  0.35943613  0.82734218  0.23871379     0.98000
O422        O  0.34345200  0.82532331  0.25486576    -0.82500
O423        O  0.31410540  0.80807059  0.30117672    -0.85200
C424        C  0.30597930  0.79666932  0.27641778     1.02500
O425        O  0.31506588  0.78428662  0.25735415    -0.78000
O426        O  0.34306371  0.76256488  0.22912078    -0.78100
C427        C  0.35132302  0.77162333  0.19921570     1.02500
O428        O  0.37574316  0.76278092  0.27588389    -0.85500
O429        O  0.38241473  0.79454410  0.32344711    -0.82500
C430        C  0.38020497  0.81009884  0.34132363     0.98000
O431        O  0.36678004  0.82048597  0.33053151    -0.82600
O432        O  0.33898656  0.80134706  0.36951305    -0.85200
C433        C  0.32901953  0.78756101  0.37840526     1.02500
O434        O  0.32367633  0.77643223  0.34878131    -0.78000
O435        O  0.35312664  0.75633953  0.32055000    -0.78100
C436        C  0.36877128  0.75253197  0.30486483     1.02400
Cr437      Cr  0.37144070  0.78984033  0.26597469     1.93700
Cr438      Cr  0.34132001  0.81233422  0.31169235     1.93200
Cr439      Cr  0.33474346  0.77130257  0.28891899     1.39100
O440        O  0.34902065  0.79109418  0.28880908    -1.23200
O441        O  0.99513950  0.60128357  0.48078131    -0.85500
O442        O  0.00609853  0.57790206  0.54624896    -0.82500
C443        C  0.02056125  0.57117369  0.52928760     0.98000
O444        O  0.03489869  0.58117739  0.52445692    -0.82500
O445        O  0.05602244  0.61463144  0.51752632    -0.85200
C446        C  0.05339876  0.62310152  0.48175242     1.02500
O447        O  0.03735254  0.62829950  0.47130810    -0.78000
O448        O  0.99963164  0.63107638  0.47179733    -0.78100
C449        C  0.99589351  0.61527890  0.45612322     1.02500
O450        O  0.98085009  0.62654753  0.54426555    -0.85500
O451        O  0.99733366  0.60571751  0.60921491    -0.82500
C452        C  0.01033250  0.59841191  0.63080794     0.98000
O453        O  0.02449701  0.59204195  0.61129955    -0.82600
O454        O  0.04284855  0.62487270  0.60264130    -0.85200
C455        C  0.04432912  0.64161984  0.59134163     1.02500
O456        O  0.03925101  0.64670759  0.55377143    -0.78000
O457        O  0.00156124  0.64753505  0.55810750    -0.78100
C458        C  0.98498860  0.64216950  0.55973857     1.02400
Cr459      Cr  0.99637214  0.60364098  0.54485123     1.93700
Cr460      Cr  0.03818985  0.60388394  0.56188137     1.93200
Cr461      Cr  0.01931332  0.63675326  0.51556370     1.39100
O462        O  0.01815914  0.61471583  0.54041008    -1.23200
O463        O  0.00419031  0.37367634  0.56287573    -0.85500
O464        O  0.96721027  0.38113885  0.55812488    -0.82500
C465        C  0.95243859  0.38878476  0.54563870     0.98000
O466        O  0.95205012  0.39751107  0.50972966    -0.82500
O467        O  0.97893826  0.42661703  0.50099434    -0.85200
C468        C  0.99452559  0.43420928  0.49361638     1.02500
O469        O  0.00754160  0.42451491  0.47815625    -0.78000
O470        O  0.01347589  0.40212237  0.54905690    -0.78100
C471        C  0.01013734  0.38929058  0.57593529     1.02500
O472        O  0.00148637  0.35519468  0.47752800    -0.85500
O473        O  0.96434247  0.36145239  0.47756725    -0.82500
C474        C  0.96010599  0.36695402  0.43973842     0.98000
O475        O  0.96412290  0.38317964  0.42760267    -0.82600
O476        O  0.98825165  0.41155937  0.41622134    -0.85200
C477        C  0.00076945  0.40165602  0.39877634     1.02500
O478        O  0.01235216  0.39324707  0.42246337    -0.78000
O479        O  0.02465091  0.37295218  0.49319541    -0.78100
C480        C  0.01862670  0.35825934  0.47641721     1.02400
Cr481      Cr  0.98476036  0.36935057  0.51719207     1.93700
Cr482      Cr  0.97202458  0.40391241  0.46597899     1.93200
Cr483      Cr  0.01293126  0.39772437  0.48598262     1.39100
O484        O  0.98961316  0.39038703  0.49023886    -1.23200
O485        O  0.86350500  0.25707175  0.67325331    -0.85500
O486        O  0.86306534  0.29519918  0.67410934    -0.82500
C487        C  0.85973367  0.31143849  0.68713058     0.98000
O488        O  0.85303629  0.31405010  0.72487173    -0.82500
O489        O  0.81901828  0.29540671  0.73515650    -0.85200
C490        C  0.80810078  0.28204237  0.74223462     1.02500
O491        O  0.81395075  0.26700120  0.75797246    -0.78000
O492        O  0.83399133  0.25412870  0.68951824    -0.78100
C493        C  0.84688586  0.25430469  0.66166115     1.02500
O494        O  0.88333462  0.25787964  0.75565369    -0.85500
O495        O  0.88446799  0.29563606  0.75250328    -0.82500
C496        C  0.88081305  0.30081625  0.79105617     0.98000
O497        O  0.86463585  0.29934708  0.80643899    -0.82600
O498        O  0.83052570  0.28396331  0.81975094    -0.85200
C499        C  0.83640689  0.26961070  0.83880533     1.02500
O500        O  0.84281743  0.25625158  0.81667636    -0.78000
O501        O  0.86060694  0.23837512  0.74814011    -0.78100
C502        C  0.87694058  0.24179590  0.76030643     1.02400
Cr503      Cr  0.87206597  0.27632164  0.71588707     1.93700
Cr504      Cr  0.84235420  0.29677583  0.76944154     1.93200
Cr505      Cr  0.83874065  0.25529403  0.75263495     1.39100
O506        O  0.85105246  0.27625927  0.74562394    -1.23200
O507        O  0.64254157  0.27616106  0.80379223    -0.85500
O508        O  0.66344769  0.26918540  0.73168108    -0.82500
C509        C  0.67300286  0.25630386  0.74786399     0.98000
O510        O  0.66577583  0.24056670  0.75437867    -0.82500
O511        O  0.63755121  0.21382964  0.76433352    -0.85200
C512        C  0.63090515  0.21429140  0.80249053     1.02500
O513        O  0.62369132  0.22899096  0.81686755    -0.78000
O514        O  0.61517303  0.26571820  0.82333528    -0.78100
C515        C  0.63085218  0.27246302  0.83328449     1.02500
O516        O  0.61210235  0.28631574  0.74989123    -0.85500
O517        O  0.63191702  0.27360017  0.67704298    -0.82500
C518        C  0.64088446  0.26228328  0.65334295     0.98000
O519        O  0.65043450  0.24964166  0.67080473    -0.82600
O520        O  0.62149766  0.22620556  0.68535078    -0.85200
C521        C  0.60602477  0.22144810  0.70111326     1.02500
O522        O  0.60159667  0.22557695  0.73992790    -0.78000
O523        O  0.59382775  0.26264002  0.74260573    -0.78100
C524        C  0.59649016  0.27983527  0.73980887     1.02400
Cr525      Cr  0.63690664  0.27472813  0.74093300     1.93700
Cr526      Cr  0.64297554  0.23382800  0.72101684     1.93200
Cr527      Cr  0.61001112  0.24620450  0.77839135     1.39100
O528        O  0.62988911  0.25143495  0.74697383    -1.23200
O529        O  0.00888484  0.62644921  0.96843258    -0.85500
O530        O  0.97166886  0.62052751  0.96829389    -0.82500
C531        C  0.95652413  0.61301409  0.97846751     0.98000
O532        O  0.95488267  0.60442305  0.01431328    -0.82500
O533        O  0.98047649  0.57485680  0.02467019    -0.85200
C534        C  0.99566621  0.56673360  0.03274722     1.02500
O535        O  0.00816036  0.57546025  0.05257446    -0.78000
O536        O  0.01640336  0.59752280  0.98248972    -0.78100
C537        C  0.01377676  0.61046914  0.95547804     1.02500
O538        O  0.00500250  0.64496247  0.05266920    -0.85500
O539        O  0.96733548  0.64008529  0.04904177    -0.82500
C540        C  0.96142074  0.63427496  0.08552412     0.98000
O541        O  0.96489043  0.61799097  0.09815076    -0.82600
O542        O  0.98782379  0.58869055  0.11203175    -0.85200
C543        C  0.00031507  0.59785429  0.13148426     1.02500
O544        O  0.01288373  0.60597332  0.10971154    -0.78000
O545        O  0.02776729  0.62604120  0.04030629    -0.78100
C546        C  0.02205674  0.64137742  0.05433348     1.02400
Cr547      Cr  0.98854294  0.63151022  0.01166144     1.93700
Cr548      Cr  0.97332588  0.59724904  0.06032442     1.93200
Cr549      Cr  0.01481256  0.60187167  0.04585340     1.39100
O550        O  0.99196977  0.61030846  0.03916169    -1.23200
O551        O  0.99349621  0.39933544  0.05047792    -0.85500
O552        O  0.00231350  0.42343012  0.98538891    -0.82500
C553        C  0.01740111  0.42999624  0.99923986     0.98000
O554        O  0.03171164  0.41989640  0.00170728    -0.82500
O555        O  0.05310125  0.38698887  0.00282421    -0.85200
C556        C  0.05144374  0.37860337  0.03901260     1.02500
O557        O  0.03575929  0.37302462  0.05156963    -0.78000
O558        O  0.99826327  0.36952982  0.05720934    -0.78100
C559        C  0.99547472  0.38526222  0.07436058     1.02500
O560        O  0.97763128  0.37445631  0.98827949    -0.85500
O561        O  0.99185025  0.39624217  0.92222353    -0.82500
C562        C  0.00421216  0.40392101  0.89921429     0.98000
O563        O  0.01868494  0.41034920  0.91689560    -0.82600
O564        O  0.03741264  0.37759462  0.91974252    -0.85200
C565        C  0.03990097  0.36089844  0.93014407     1.02500
O566        O  0.03598243  0.35537774  0.96821496    -0.78000
O567        O  0.99824435  0.35403670  0.96914297    -0.78100
C568        C  0.98166112  0.35945337  0.96944606     1.02400
Cr569      Cr  0.99273850  0.39762630  0.98660145     1.93700
Cr570      Cr  0.03393572  0.39794200  0.96243390     1.93200
Cr571      Cr  0.01682204  0.36453198  0.00993816     1.39100
O572        O  0.01469415  0.38674530  0.98663137    -1.23200
O573        O  0.86943784  0.74598511  0.85940986    -0.85500
O574        O  0.86845147  0.70808788  0.85221159    -0.82500
C575        C  0.86516119  0.69226446  0.83661931     0.98000
O576        O  0.85797429  0.69081554  0.79907321    -0.82500
O577        O  0.82393137  0.71055217  0.79148702    -0.85200
C578        C  0.81325957  0.72422923  0.78533333     1.02500
O579        O  0.81970219  0.73966462  0.77343363    -0.78000
O580        O  0.83994087  0.74967004  0.84473904    -0.78100
C581        C  0.85290116  0.74854365  0.87213794     1.02500
O582        O  0.88911798  0.74723160  0.77633821    -0.85500
O583        O  0.88975673  0.70972175  0.77380365    -0.82500
C584        C  0.88621026  0.70580913  0.73451745     0.98000
O585        O  0.86999535  0.70768120  0.71982387    -0.82600
O586        O  0.83642989  0.72434393  0.70855224    -0.85200
C587        C  0.84209812  0.73959126  0.69301338     1.02500
O588        O  0.84889913  0.75183264  0.71774532    -0.78000
O589        O  0.86691994  0.76686740  0.78909459    -0.78100
C590        C  0.88295550  0.76348816  0.77458081     1.02400
Cr591      Cr  0.87766145  0.72797061  0.81353897     1.93700
Cr592      Cr  0.84761097  0.70967087  0.75721738     1.93200
Cr593      Cr  0.84472000  0.75060202  0.78156186     1.39100
O594        O  0.85663166  0.72923621  0.78441477    -1.23200
O595        O  0.64538856  0.73149755  0.74383721    -0.85500
O596        O  0.66782836  0.73949171  0.81408333    -0.82500
C597        C  0.67747365  0.75181037  0.79595141     0.98000
O598        O  0.67013944  0.76732376  0.78702617    -0.82500
O599        O  0.64105339  0.79372076  0.77324125    -0.85200
C600        C  0.63265618  0.79173954  0.73711073     1.02500
O601        O  0.62517666  0.77649292  0.72789533    -0.78000
O602        O  0.61667356  0.73985524  0.73166010    -0.78100
C603        C  0.63216349  0.73408143  0.71752292     1.02500
O604        O  0.61630904  0.72221324  0.80356717    -0.85500
O605        O  0.63716967  0.73649838  0.87106947    -0.82500
C606        C  0.64564499  0.74865590  0.89309322     0.98000
O607        O  0.65522927  0.76099894  0.87394042    -0.82600
O608        O  0.62680946  0.78449223  0.85798361    -0.85200
C609        C  0.61090092  0.78857073  0.84406050     1.02500
O610        O  0.60558722  0.78324293  0.80693109    -0.78000
O611        O  0.59868750  0.74609698  0.81533336    -0.78100
C612        C  0.60129618  0.72888272  0.81753083     1.02400
Cr613      Cr  0.64121655  0.73394057  0.80756366     1.93700
Cr614      Cr  0.64753005  0.77538391  0.82099518     1.93200
Cr615      Cr  0.61299591  0.76109335  0.77246412     1.39100
O616        O  0.63395559  0.75705089  0.80010106    -1.23200
O617        O  0.50161766  0.12810508  0.45228774    -0.85500
O618        O  0.46531631  0.11846081  0.45420332    -0.82500
C619        C  0.45069705  0.11025496  0.46566221     0.98000
O620        O  0.44965336  0.10244783  0.50282379    -0.82500
O621        O  0.47722036  0.07456897  0.51951765    -0.85200
C622        C  0.49305644  0.06797173  0.52856075     1.02500
O623        O  0.50565202  0.07868528  0.54141156    -0.78000
O624        O  0.51130277  0.10004043  0.46757972    -0.78100
C625        C  0.50825794  0.11269838  0.43994780     1.02500
O626        O  0.49645410  0.14749702  0.53531635    -0.85500
O627        O  0.45937427  0.13942930  0.53159701    -0.82500
C628        C  0.45458189  0.13454632  0.56953453     0.98000
O629        O  0.45942253  0.11906764  0.58457962    -0.82600
O630        O  0.48436882  0.09226749  0.60257265    -0.85200
C631        C  0.49735470  0.10199894  0.61863479     1.02500
O632        O  0.50860043  0.11048041  0.59394893    -0.78000
O633        O  0.52055606  0.13041667  0.52207036    -0.78100
C634        C  0.51375080  0.14527874  0.53633677     1.02400
Cr635      Cr  0.48113569  0.13192057  0.49560650     1.93700
Cr636      Cr  0.46890648  0.09793278  0.54990005     1.93200
Cr637      Cr  0.50988160  0.10531639  0.53074834     1.39100
O638        O  0.48637474  0.11161224  0.52513800    -1.23200
O639        O  0.49565386  0.90451336  0.58907954    -0.85500
O640        O  0.50666963  0.92538817  0.51964557    -0.82500
C641        C  0.52163123  0.93183740  0.53447372     0.98000
O642        O  0.53559757  0.92140124  0.53965770    -0.82500
O643        O  0.55579340  0.88748500  0.54708900    -0.85200
C644        C  0.55400997  0.87999082  0.58433656     1.02500
O645        O  0.53808198  0.87592190  0.59851487    -0.78000
O646        O  0.50002449  0.87500815  0.60390012    -0.78100
C647        C  0.49594642  0.89132418  0.61603340     1.02500
O648        O  0.47978447  0.87817185  0.53307142    -0.85500
O649        O  0.49575903  0.89586765  0.46232985    -0.82500
C650        C  0.50846796  0.90239804  0.43845474     0.98000
O651        O  0.52281014  0.90930841  0.45576776    -0.82600
O652        O  0.53958983  0.87615248  0.46637266    -0.85200
C653        C  0.54086694  0.85971777  0.47974405     1.02500
O654        O  0.53698959  0.85560484  0.51877501    -0.78000
O655        O  0.49927828  0.85590987  0.52026427    -0.78100
C656        C  0.48299721  0.86210688  0.51916863     1.02400
Cr657      Cr  0.49596642  0.90019204  0.52613825     1.93700
Cr658      Cr  0.53717454  0.89801439  0.50463294     1.93200
Cr659      Cr  0.51843080  0.86718882  0.55847090     1.39100
O660        O  0.51740849  0.88853559  0.53048273    -1.23200
O661        O  0.14777663  0.23118508  0.19232928    -0.85500
O662        O  0.16944678  0.23971685  0.26193390    -0.82500
C663        C  0.17801258  0.25262032  0.24298935     0.98000
O664        O  0.16998990  0.26802863  0.23690628    -0.82500
O665        O  0.13977116  0.29316762  0.22758848    -0.85200
C666        C  0.13172770  0.29183816  0.19106632     1.02500
O667        O  0.12526766  0.27649008  0.17892508    -0.78000
O668        O  0.11929578  0.23926929  0.17627070    -0.78100
C669        C  0.13532428  0.23398044  0.16431970     1.02500
O670        O  0.11886865  0.21942527  0.25001118    -0.85500
O671        O  0.13913804  0.23408296  0.31928257    -0.82500
C672        C  0.14786282  0.24588556  0.34190331     0.98000
O673        O  0.15602926  0.25934866  0.32347873    -0.82600
O674        O  0.12591106  0.28145212  0.30968448    -0.85200
C675        C  0.10980941  0.28504812  0.29592730     1.02500
O676        O  0.10462577  0.27969441  0.25854745    -0.78000
O677        O  0.09945467  0.24207477  0.25936422    -0.78100
C678        C  0.10306720  0.22504010  0.26172753     1.02400
Cr679      Cr  0.14309693  0.23267919  0.25549326     1.93700
Cr680      Cr  0.14716717  0.27413515  0.27225672     1.93200
Cr681      Cr  0.11369118  0.25904336  0.22045720     1.39100
O682        O  0.13454949  0.25548047  0.24935312    -1.23200
O683        O  0.36658625  0.22630277  0.31723348    -0.85500
O684        O  0.37762386  0.19402133  0.28047151    -0.82500
C685        C  0.36505459  0.18272219  0.29172231     0.98000
O686        O  0.34898453  0.18372303  0.27517309    -0.82500
O687        O  0.31845635  0.20000578  0.22774580    -0.85200
C688        C  0.31011045  0.21171575  0.25158841     1.02500
O689        O  0.31936012  0.22374071  0.27123337    -0.78000
O690        O  0.34662323  0.24730444  0.29514044    -0.78100
C691        C  0.35551772  0.23933468  0.32548694     1.02500
O692        O  0.37944683  0.24694352  0.24395185    -0.85500
O693        O  0.38688801  0.21385562  0.20173453    -0.82500
C694        C  0.38514235  0.19772438  0.18653931     0.98000
O695        O  0.37151406  0.18776550  0.19828878    -0.82600
O696        O  0.34328912  0.20639043  0.15845383    -0.85200
C697        C  0.33290345  0.21987219  0.14917625     1.02500
O698        O  0.32686823  0.23064868  0.17882989    -0.78000
O699        O  0.35538272  0.25236014  0.20313077    -0.78100
C700        C  0.37127908  0.25676041  0.21584173     1.02400
Cr701      Cr  0.37595444  0.22013675  0.25901542     1.93700
Cr702      Cr  0.34599952  0.19601396  0.21718843     1.93200
Cr703      Cr  0.33817895  0.23706555  0.23728198     1.39100
O704        O  0.35331014  0.21780170  0.23797145    -1.23200
C705        C  0.26192546  0.22984088  0.27575457    -0.27700
C706        C  0.25357164  0.22833754  0.23459913     0.01900
C707        C  0.26314117  0.21903188  0.20088900     0.30000
C708        C  0.28102826  0.21201224  0.20828357    -0.19500
C709        C  0.28973832  0.21424764  0.24896227    -0.28900
C710        C  0.27986599  0.22301804  0.28300780     0.44000
C711        C  0.23455570  0.23587030  0.22827364     0.05200
O712        O  0.25566841  0.21795621  0.15981065    -0.57400
H713        H  0.28857204  0.20593876  0.18115324     0.18100
O714        O  0.28775721  0.22515479  0.32338799    -0.64200
H715        H  0.25457557  0.23655504  0.30232967     0.16600
C716        C  0.21993961  0.22400287  0.21665722     0.28800
C717        C  0.20170565  0.23046567  0.21747385    -0.25100
C718        C  0.19747418  0.24869571  0.23041178    -0.24300
C719        C  0.21211147  0.26101586  0.23909606     0.40300
C720        C  0.23052984  0.25451909  0.23832884    -0.26800
O721        O  0.22314632  0.20565885  0.20763612    -0.58700
H722        H  0.19064263  0.22071838  0.21082363     0.15900
O723        O  0.20854025  0.27880879  0.25234209    -0.60100
H724        H  0.24164217  0.26383922  0.24737474     0.14400
H725        H  0.29029783  0.23860072  0.32618269     0.46200
H726        H  0.22303736  0.19935365  0.23639809     0.41600
H727        H  0.20803394  0.28616277  0.22504058     0.45000
H728        H  0.25333763  0.20459659  0.15461681     0.36500
C729        C  0.42089127  0.12515234  0.37057789    -0.27700
C730        C  0.40399208  0.12855531  0.39185099     0.01900
C731        C  0.40154437  0.12218801  0.43490420     0.30000
C732        C  0.41642270  0.11398830  0.45731595    -0.19500
C733        C  0.43401674  0.11244075  0.43758976    -0.28900
C734        C  0.43586835  0.11728410  0.39307754     0.44000
C735        C  0.39046018  0.14132666  0.37112852     0.05200
O736        O  0.38487488  0.12460693  0.45584188    -0.57400
H737        H  0.41458089  0.11036914  0.49137691     0.18100
O738        O  0.45253083  0.11515809  0.37186068    -0.64200
H739        H  0.42293111  0.12985978  0.33731125     0.16600
C740        C  0.38920469  0.15980958  0.38566310     0.28800
C741        C  0.37929306  0.17288470  0.36133624    -0.25100
C742        C  0.37038997  0.16786394  0.32240549    -0.24300
C743        C  0.37072721  0.14918058  0.30911043     0.40300
C744        C  0.38089810  0.13607912  0.33319262    -0.26800
O745        O  0.39870738  0.16551709  0.42199775    -0.58700
H746        H  0.37949367  0.18727023  0.37152332     0.15900
O747        O  0.36281128  0.14398857  0.27036697    -0.60100
H748        H  0.38203299  0.12200380  0.32117954     0.14400
H749        H  0.45721151  0.12790180  0.36696681     0.46200
H750        H  0.41117875  0.16911687  0.41121613     0.41600
H751        H  0.35002039  0.14014199  0.27810289     0.45000
H752        H  0.38645692  0.13582460  0.47415841     0.36500
C753        C  0.52750425  0.98268691  0.51231174    -0.27700
C754        C  0.51367899  0.99020877  0.53968145     0.01900
C755        C  0.50484348  0.97854732  0.57013513     0.30000
C756        C  0.50891667  0.95959903  0.57078633    -0.19500
C757        C  0.52214140  0.95195340  0.54227792    -0.28900
C758        C  0.53171747  0.96369898  0.51340656     0.44000
C759        C  0.50821367  0.01003062  0.53533434     0.05200
O760        O  0.49171470  0.98539654  0.59835750    -0.57400
H761        H  0.50099495  0.95065869  0.59209185     0.18100
O762        O  0.54414656  0.95654013  0.48387215    -0.64200
H763        H  0.53438426  0.99136672  0.48841662     0.16600
C764        C  0.52165282  0.02405908  0.53696154     0.28800
C765        C  0.51637580  0.04260033  0.53294042    -0.25100
C766        C  0.49764027  0.04780854  0.52754074    -0.24300
C767        C  0.48415522  0.03373149  0.52546219     0.40300
C768        C  0.48948865  0.01503076  0.52930807    -0.26800
O769        O  0.53988219  0.01985127  0.54509226    -0.58700
H770        H  0.52715620  0.05300158  0.53511042     0.15900
O771        O  0.46572457  0.03804629  0.52162399    -0.60100
H772        H  0.47893714  0.00438124  0.52771598     0.14400
H773        H  0.53673579  0.95360829  0.45753589     0.46200
H774        H  0.54647616  0.02188652  0.51703247     0.41600
H775        H  0.46312777  0.03744814  0.48988404     0.45000
H776        H  0.49879256  0.99011188  0.62373763     0.36500
C777        C  0.58429179  0.85834610  0.67213686    -0.27700
C778        C  0.59986888  0.85301441  0.64750933     0.01900
C779        C  0.60151665  0.85930278  0.60419675     0.30000
C780        C  0.58713884  0.86961213  0.58519531    -0.19500
C781        C  0.57075226  0.87360277  0.60861230    -0.28900
C782        C  0.56979561  0.86846642  0.65308162     0.44000
C783        C  0.61246141  0.83850534  0.66509264     0.05200
O784        O  0.61660256  0.85445151  0.57930881    -0.57400
H785        H  0.58829266  0.87330555  0.55101780     0.18100
O786        O  0.55427244  0.87219804  0.67754646    -0.64200
H787        H  0.58277867  0.85356014  0.70548951     0.16600
C788        C  0.62270566  0.84122924  0.70359666     0.28800
C789        C  0.63098000  0.82606161  0.72471930    -0.25100
C790        C  0.62907420  0.80795595  0.70809535    -0.24300
C791        C  0.62024741  0.80562675  0.66723709     0.40300
C792        C  0.61215876  0.82082802  0.64613658    -0.26800
O793        O  0.62385641  0.85848673  0.72209175    -0.58700
H794        H  0.63772736  0.82834238  0.75579901     0.15900
O795        O  0.61865577  0.78841477  0.64852021    -0.60100
H796        H  0.60447785  0.81852725  0.61627146     0.14400
H797        H  0.55597058  0.88505489  0.68822174     0.46200
H798        H  0.63432442  0.86463921  0.70684347     0.41600
H799        H  0.60570820  0.78444991  0.65431057     0.45000
H800        H  0.62631506  0.86362488  0.58680403     0.36500
C801        C  0.76417191  0.72833473  0.82581140    -0.27700
C802        C  0.75501367  0.73176782  0.78617971     0.01900
C803        C  0.76466130  0.72957989  0.74665831     0.30000
C804        C  0.78351001  0.72513060  0.74708660    -0.19500
C805        C  0.79297889  0.72265641  0.78662620    -0.28900
C806        C  0.78312915  0.72387358  0.82621065     0.44000
C807        C  0.73524755  0.73713429  0.78615142     0.05200
O808        O  0.75594796  0.73248948  0.70753310    -0.57400
H809        H  0.79104248  0.72462412  0.71645277     0.18100
O810        O  0.79218148  0.72223960  0.86530207    -0.64200
H811        H  0.75674955  0.72975741  0.85645166     0.16600
C812        C  0.72166608  0.72371056  0.79392231     0.28800
C813        C  0.70301815  0.72874294  0.79462716    -0.25100
C814        C  0.69739000  0.74731141  0.78856612    -0.24300
C815        C  0.71103857  0.76071030  0.77916100     0.40300
C816        C  0.72986945  0.75554938  0.77798010    -0.26800
O817        O  0.72650488  0.70553624  0.80042743    -0.58700
H818        H  0.69293043  0.71795613  0.80100933     0.15900
O819        O  0.70628631  0.77889694  0.77286768    -0.60100
H820        H  0.74032249  0.76597037  0.77148398     0.14400
H821        H  0.79090054  0.70901995  0.87353418     0.46200
H822        H  0.72780193  0.70419781  0.83249573     0.41600
H823        H  0.70398984  0.78003198  0.74107793     0.45000
H824        H  0.75053873  0.72032617  0.69956577     0.36500
C825        C  0.11807095  0.34118294  0.16337824    -0.27700
C826        C  0.10959885  0.33860592  0.12273257     0.01900
C827        C  0.11128071  0.32135666  0.10164662     0.30000
C828        C  0.12023708  0.30661752  0.12253827    -0.19500
C829        C  0.12750114  0.30868429  0.16485347    -0.28900
C830        C  0.12711551  0.32647513  0.18432074     0.44000
C831        C  0.09649481  0.35266406  0.10576143     0.05200
O832        O  0.10298092  0.31836131  0.06202376    -0.57400
H833        H  0.12034930  0.29318397  0.10672597     0.18100
O834        O  0.13387279  0.32927844  0.22558052    -0.64200
H835        H  0.11675484  0.35437174  0.18002649     0.16600
C836        C  0.07941815  0.35548794  0.12709403     0.28800
C837        C  0.06541223  0.36567014  0.10671632    -0.25100
C838        C  0.06801638  0.37305937  0.06465189    -0.24300
C839        C  0.08578224  0.37172256  0.04517549     0.40300
C840        C  0.09977226  0.36134895  0.06552310    -0.26800
O841        O  0.07579535  0.34718832  0.16650154    -0.58700
H842        H  0.05202383  0.36666993  0.12272995     0.15900
O843        O  0.08917771  0.37903296  0.00462697    -0.60100
H844        H  0.11290134  0.35932053  0.04888596     0.14400
H845        H  0.14685850  0.33341279  0.22126239     0.46200
H846        H  0.07070264  0.33481509  0.15915015     0.41600
H847        H  0.09393765  0.39169629  0.01022064     0.45000
H848        H  0.09015693  0.31436130  0.06904649     0.36500
C849        C  0.92623888  0.63349220  0.89031187    -0.27700
C850        C  0.90915921  0.63434971  0.91234051     0.01900
C851        C  0.90697127  0.62462130  0.95176734     0.30000
C852        C  0.92223874  0.61570041  0.97071602    -0.19500
C853        C  0.93991364  0.61668002  0.95122809    -0.28900
C854        C  0.94154859  0.62472389  0.90932479     0.44000
C855        C  0.89471162  0.64734727  0.89655316     0.05200
O856        O  0.89007086  0.62424664  0.97249877    -0.57400
H857        H  0.92048693  0.60934665  0.00249639     0.18100
O858        O  0.95832057  0.62536790  0.88808218    -0.64200
H859        H  0.92804230  0.64072283  0.85959171     0.16600
C860        C  0.89038905  0.66340987  0.92066404     0.28800
C861        C  0.87936418  0.67732351  0.90213966    -0.25100
C862        C  0.87239032  0.67554378  0.85950766    -0.24300
C863        C  0.87569802  0.65878089  0.83667863     0.40300
C864        C  0.88694642  0.64499730  0.85505959    -0.26800
O865        O  0.89841691  0.66645202  0.96058661    -0.58700
H866        H  0.87721715  0.69002983  0.92033122     0.15900
O867        O  0.86942677  0.65631924  0.79486973    -0.60100
H868        H  0.89025518  0.63274834  0.83609143     0.14400
H869        H  0.95996839  0.61288593  0.87507754     0.46200
H870        H  0.88818777  0.66536495  0.98215415     0.41600
H871        H  0.85715118  0.65028838  0.79812707     0.45000
H872        H  0.89168055  0.63154189  0.99967358     0.36500
C873        C  0.02626644  0.48122498  0.98755823    -0.27700
C874        C  0.01142181  0.48853058  0.01209406     0.01900
C875        C  0.00031586  0.47639860  0.03685781     0.30000
C876        C  0.00334711  0.45730435  0.03475046    -0.19500
C877        C  0.01773617  0.44994367  0.00912358    -0.28900
C878        C  0.02952136  0.46205534  0.98615723     0.44000
C879        C  0.00769063  0.50878063  0.01252161     0.05200
O880        O  0.98620498  0.48304687  0.06260722    -0.57400
H881        H  0.99399351  0.44812415  0.05205893     0.18100
O882        O  0.04313092  0.45523048  0.95920553    -0.64200
H883        H  0.03496208  0.49035358  0.96830584     0.16600
C884        C  0.02162580  0.52128513  0.02478131     0.28800
C885        C  0.01750894  0.54008040  0.02916790    -0.25100
C886        C  0.99944489  0.54696142  0.02200050    -0.24300
C887        C  0.98571219  0.53459105  0.00735347     0.40300
C888        C  0.98986234  0.51564088  0.00297582    -0.26800
O889        O  0.03918550  0.51520146  0.03426307    -0.58700
H890        H  0.02854404  0.54922227  0.03962124     0.15900
O891        O  0.96807461  0.54065004  0.99890052    -0.60100
H892        H  0.97903645  0.50619771  0.99279428     0.14400
H893        H  0.05424316  0.45403659  0.97796208     0.46200
H894        H  0.03872558  0.51145050  0.06539418     0.41600
H895        H  0.96820725  0.54424786  0.96765654     0.45000
H896        H  0.99212382  0.48626806  0.09078358     0.36500
C897        C  0.56596330  0.19079370  0.66748875    -0.27700
C898        C  0.56654652  0.19244124  0.62192268     0.01900
C899        C  0.58049039  0.20330298  0.60229318     0.30000
C900        C  0.59352229  0.21241634  0.62843380    -0.19500
C901        C  0.59278766  0.21092970  0.67413524    -0.28900
C902        C  0.57884821  0.19996025  0.69358316     0.44000
C903        C  0.55275170  0.18219655  0.59573518     0.05200
O904        O  0.58088547  0.20580346  0.55786470    -0.57400
H905        H  0.60395093  0.22100851  0.61291186     0.18100
O906        O  0.57802108  0.19760710  0.73799958    -0.64200
H907        H  0.55552860  0.18219090  0.68295610     0.16600
C908        C  0.55846853  0.16930454  0.56401083     0.28800
C909        C  0.54536394  0.15829324  0.54305700    -0.25100
C910        C  0.52644600  0.15944034  0.55402044    -0.24300
C911        C  0.52062682  0.17265571  0.58503779     0.40300
C912        C  0.53377354  0.18392416  0.60560456    -0.26800
O913        O  0.57691384  0.16655520  0.55502855    -0.58700
H914        H  0.55019470  0.14819571  0.51941048     0.15900
O915        O  0.50242561  0.17372428  0.59791564    -0.60100
H916        H  0.52921476  0.19363494  0.63042117     0.14400
H917        H  0.56828642  0.20631237  0.74825054     0.46200
H918        H  0.58111434  0.15719610  0.57652974     0.41600
H919        H  0.49695452  0.18369148  0.57979465     0.45000
H920        H  0.59265938  0.20010968  0.54770836     0.36500
C921        C  0.92397316  0.32675999  0.82544570    -0.27700
C922        C  0.92455638  0.32273774  0.87021469     0.01900
C923        C  0.91051101  0.31175104  0.88895605     0.30000
C924        C  0.89613195  0.30494541  0.86296907    -0.19500
C925        C  0.89567481  0.30876305  0.81806419    -0.28900
C926        C  0.90970590  0.31980772  0.79932579     0.44000
C927        C  0.93930969  0.33092557  0.89746227     0.05200
O928        O  0.91076410  0.30756579  0.93262102    -0.57400
H929        H  0.88549773  0.29638072  0.87779185     0.18100
O930        O  0.90905147  0.32467386  0.75605047    -0.64200
H931        H  0.93442769  0.33560891  0.81087657     0.16600
C932        C  0.95816569  0.32739098  0.88891656     0.28800
C933        C  0.97185251  0.33609301  0.91397919    -0.25100
C934        C  0.96699171  0.34872611  0.94706830    -0.24300
C935        C  0.94802710  0.35199094  0.95587980     0.40300
C936        C  0.93441253  0.34300132  0.93139567    -0.26800
O937        O  0.96330097  0.31524992  0.85657284    -0.58700
H938        H  0.98630036  0.33340452  0.90648520     0.15900
O939        O  0.94259636  0.36383991  0.98855426    -0.60100
H940        H  0.91993201  0.34585862  0.93818998     0.14400
H941        H  0.91777122  0.31613396  0.74105864     0.46200
H942        H  0.96719045  0.32312705  0.83165608     0.41600
H943        H  0.93954091  0.37564876  0.97367016     0.45000
H944        H  0.91829766  0.29611122  0.93488247     0.36500
C945        C  0.75994713  0.26889283  0.71159550    -0.27700
C946        C  0.74994201  0.27654725  0.74662554     0.01900
C947        C  0.75901224  0.28866410  0.77575886     0.30000
C948        C  0.77795247  0.29233700  0.77035803    -0.19500
C949        C  0.78807297  0.28373827  0.73692847    -0.28900
C950        C  0.77894704  0.27205430  0.70728342     0.44000
C951        C  0.73032285  0.27104022  0.75299426     0.05200
O952        O  0.75001470  0.29532929  0.81209713    -0.57400
H953        H  0.78507885  0.30055084  0.79472788     0.18100
O954        O  0.78871706  0.26281601  0.67553199    -0.64200
H955        H  0.75318109  0.25970280  0.68864882     0.16600
C956        C  0.71636510  0.28443903  0.75855853     0.28800
C957        C  0.69788640  0.27899193  0.76096476    -0.25100
C958        C  0.69275173  0.26032081  0.75571782    -0.24300
C959        C  0.70665962  0.24678664  0.75159008     0.40300
C960        C  0.72531794  0.25219352  0.75053338    -0.26800
O961        O  0.72044775  0.30299543  0.75884753    -0.58700
H962        H  0.68739587  0.28966648  0.76430346     0.15900
O963        O  0.70219543  0.22854483  0.74493701    -0.60100
H964        H  0.73589843  0.24168091  0.74623030     0.14400
H965        H  0.79145954  0.25045183  0.68807438     0.46200
H966        H  0.72092578  0.30668762  0.72767954     0.41600
H967        H  0.70190923  0.22294143  0.77447862     0.45000
H968        H  0.75006210  0.30901184  0.80906174     0.36500
C969        C  0.98700275  0.40401346  0.28010359    -0.27700
C970        C  0.00046803  0.39276444  0.26063838     0.01900
C971        C  0.01452979  0.38486865  0.28625370     0.30000
C972        C  0.01488780  0.38832552  0.33121657    -0.19500
C973        C  0.00129135  0.39959373  0.35090434    -0.28900
C974        C  0.98732837  0.40755195  0.32465201     0.44000
C975        C  0.99981266  0.39032337  0.21310812     0.05200
O976        O  0.02828736  0.37440286  0.26738512    -0.57400
H977        H  0.02571030  0.38202461  0.35065877     0.18100
O978        O  0.97355435  0.41840352  0.34213169    -0.64200
H979        H  0.97609921  0.41010255  0.26049682     0.16600
C980        C  0.99725083  0.37280812  0.19403638     0.28800
C981        C  0.99532846  0.37132497  0.14878463    -0.25100
C982        C  0.99561903  0.38722931  0.12224569    -0.24300
C983        C  0.99802225  0.40477182  0.14182334     0.40300
C984        C  0.00017812  0.40614878  0.18680411    -0.26800
O985        O  0.99638489  0.35714451  0.21928865    -0.58700
H986        H  0.99364816  0.35770201  0.13447695     0.15900
O987        O  0.99910061  0.42062900  0.11730536    -0.60100
H988        H  0.00209816  0.41970544  0.20135628     0.14400
H989        H  0.97826744  0.43127845  0.34003021     0.46200
H990        H  0.98328280  0.35628985  0.22902160     0.41600
H991        H  0.98642415  0.42595779  0.11796821     0.45000
H992        H  0.02577947  0.36147418  0.27661368     0.36500
C993        C  0.00947642  0.41340962  0.68499387    -0.27700
C994        C  0.00930420  0.39824429  0.71346849     0.01900
C995        C  0.01156912  0.38022081  0.69673605     0.30000
C996        C  0.01278933  0.37749674  0.65174453    -0.19500
C997        C  0.01221328  0.39263481  0.62301448    -0.28900
C998        C  0.01119016  0.41076819  0.64011394     0.44000
C999        C  0.00647763  0.40135841  0.76049304     0.05200
O1000       O  0.01220602  0.36516939  0.72402392    -0.57400
H1001       H  0.01374829  0.36347415  0.63928654     0.18100
O1002       O  0.01042189  0.42594764  0.61325643    -0.64200
H1003       H  0.00766224  0.42734440  0.69746152     0.16600
C1004       C  0.01785054  0.41374765  0.78343247     0.28800
C1005       C  0.01586236  0.41548209  0.82843829    -0.25100
C1006       C  0.00274968  0.40483167  0.85137746    -0.24300
C1007       C  0.99058505  0.39324316  0.82798904     0.40300
C1008       C  0.99251298  0.39161935  0.78276189    -0.26800
O1009       O  0.03192694  0.42306734  0.76268433    -0.58700
H1010       H  0.02534643  0.42452809  0.84563122     0.15900
O1011       O  0.97774554  0.38242873  0.84909360    -0.60100
H1012       H  0.98341900  0.38231976  0.76514868     0.14400
H1013       H  0.02343878  0.43021175  0.61039473     0.46200
H1014       H  0.02784155  0.43617986  0.76153198     0.41600
H1015       H  0.96601881  0.38958995  0.84802785     0.45000
H1016       H  0.02539562  0.36403650  0.73267709     0.36500
C1017       C  0.03884946  0.32077384  0.40295888    -0.27700
C1018       C  0.05789669  0.32450045  0.40642548     0.01900
C1019       C  0.06391678  0.33853381  0.43485113     0.30000
C1020       C  0.05095234  0.34881065  0.45871420    -0.19500
C1021       C  0.03181936  0.34541692  0.45477683    -0.28900
C1022       C  0.02583183  0.33101292  0.42702271     0.44000
C1023       C  0.07128518  0.31435886  0.37850706     0.05200
O1024       O  0.08233794  0.34319838  0.43706253    -0.57400
H1025       H  0.05596052  0.35989435  0.47941265     0.18100
O1026       O  0.00732256  0.32745627  0.42127262    -0.64200
H1027       H  0.03404773  0.31004827  0.38096874     0.16600
C1028       C  0.08614481  0.30436664  0.39668957     0.28800
C1029       C  0.09882484  0.29525979  0.36943151    -0.25100
C1030       C  0.09673081  0.29560106  0.32384064    -0.24300
C1031       C  0.08178171  0.30559829  0.30570665     0.40300
C1032       C  0.06926641  0.31489604  0.33301945    -0.26800
O1033       O  0.08823967  0.30318517  0.44108511    -0.58700
H1034       H  0.11008135  0.28753364  0.38410525     0.15900
O1035       O  0.07964957  0.30695892  0.26132534    -0.60100
H1036       H  0.05802072  0.32272454  0.31859200     0.14400
H1037       H  0.00428711  0.31763794  0.44276479     0.46200
H1038       H  0.08058706  0.29242956  0.45010036     0.41600
H1039       H  0.06993573  0.29778626  0.25381296     0.45000
H1040       H  0.08642151  0.33939805  0.46662032     0.36500
C1041       C  0.90184824  0.37837551  0.57030494    -0.27700
C1042       C  0.90362451  0.36797220  0.60868258     0.01900
C1043       C  0.92086553  0.36737635  0.62994516     0.30000
C1044       C  0.93634459  0.37592443  0.61111361    -0.19500
C1045       C  0.93506707  0.38513118  0.57073527    -0.28900
C1046       C  0.91736253  0.38704450  0.55139841     0.44000
C1047       C  0.88831984  0.35589915  0.62397185     0.05200
O1048       O  0.92313054  0.35687233  0.66687552    -0.57400
H1049       H  0.94967154  0.37419057  0.62681643     0.18100
O1050       O  0.91520149  0.39636474  0.51273885    -0.64200
H1051       H  0.88858463  0.37905042  0.55387998     0.16600
C1052       C  0.88033605  0.35844958  0.66542253     0.28800
C1053       C  0.86937802  0.34448802  0.68379603    -0.25100
C1054       C  0.86640767  0.32764200  0.66162742    -0.24300
C1055       C  0.87303943  0.32583992  0.61840181     0.40300
C1056       C  0.88379321  0.34001124  0.59979125    -0.26800
O1057       O  0.88431798  0.37394133  0.68955942    -0.58700
H1058       H  0.86444543  0.34634979  0.71696184     0.15900
O1059       O  0.86975433  0.31003085  0.59475424    -0.72900
H1060       H  0.88974277  0.33797248  0.56760313     0.14400
H1061       H  0.91537935  0.38666374  0.48978097     0.46200
H1062       H  0.87441614  0.38294608  0.68227788     0.41600
H1063       H  0.88140565  0.30275550  0.59634075     0.45000
H1064       H  0.92307805  0.36584544  0.69140245     0.36500
C1065       C  0.00670742  0.58815737  0.84565491    -0.27700
C1066       C  0.01268432  0.60230402  0.81782475     0.01900
C1067       C  0.02027935  0.61862120  0.83518138     0.30000
C1068       C  0.02126726  0.62092923  0.88036584    -0.19500
C1069       C  0.01515196  0.60685311  0.90847011    -0.28900
C1070       C  0.00799839  0.59027860  0.89085782     0.44000
C1071       C  0.01134545  0.59982832  0.77049023     0.05200
O1072       O  0.02620289  0.63258193  0.80817522    -0.57400
H1073       H  0.02656716  0.63381785  0.89349171     0.18100
O1074       O  0.00093063  0.57670742  0.91748043    -0.64200
H1075       H  0.00084067  0.57556644  0.83226475     0.16600
C1076       C  0.02671077  0.59342678  0.74684826     0.28800
C1077       C  0.02584082  0.59233832  0.70152006    -0.25100
C1078       C  0.00969822  0.59765037  0.67901070    -0.24300
C1079       C  0.99404554  0.60354672  0.70316522     0.40300
C1080       C  0.99498104  0.60459118  0.74873095    -0.26800
O1081       O  0.04289302  0.58891931  0.76772119    -0.58700
H1082       H  0.03812573  0.58788348  0.68396250     0.15900
O1083       O  0.97804285  0.60894151  0.68272230    -0.60100
H1084       H  0.98308829  0.60953436  0.76707566     0.14400
H1085       H  0.01118285  0.56769922  0.92130314     0.46200
H1086       H  0.04146074  0.57574209  0.77621073     0.41600
H1087       H  0.97064016  0.59744970  0.67956361     0.45000
H1088       H  0.03951745  0.62998184  0.80275144     0.36500
C1089       C  0.98169824  0.59977416  0.24689091    -0.27700
C1090       C  0.99744540  0.60505025  0.27023284     0.01900
C1091       C  0.01452787  0.60704710  0.24829854     0.30000
C1092       C  0.01549254  0.60429279  0.20306717    -0.19500
C1093       C  0.99961302  0.59927106  0.17950311    -0.28900
C1094       C  0.98266975  0.59671090  0.20205623     0.44000
C1095       C  0.99573293  0.60826249  0.31757381     0.05200
O1096       O  0.03039953  0.61098223  0.27110371    -0.57400
H1097       H  0.02866167  0.60607685  0.18646684     0.18100
O1098       O  0.96666338  0.59230767  0.18031447    -0.64200
H1099       H  0.96847537  0.59829157  0.26345630     0.16600
C1100       C  0.00075425  0.62534224  0.33609147     0.28800
C1101       C  0.99978922  0.62773925  0.38120270    -0.25100
C1102       C  0.99360769  0.61332192  0.40849909    -0.24300
C1103       C  0.98736373  0.59666419  0.38951099     0.40300
C1104       C  0.98853579  0.59422618  0.34435127    -0.26800
O1105       O  0.00683502  0.63969857  0.31046066    -0.58700
H1106       H  0.00452798  0.64074353  0.39485964     0.15900
O1107       O  0.98063579  0.58246598  0.41471027    -0.60100
H1108       H  0.98420079  0.58116317  0.33024066     0.14400
H1109       H  0.96509291  0.57877126  0.18439518     0.46200
H1110       H  0.99541904  0.64598617  0.30024442     0.41600
H1111       H  0.96731234  0.58534356  0.41912090     0.45000
H1112       H  0.03401004  0.62368264  0.26214384     0.36500
C1113       C  0.93182694  0.68513194  0.69616971    -0.27700
C1114       C  0.92928302  0.68464645  0.65089817     0.01900
C1115       C  0.91275329  0.69160745  0.63295618     0.30000
C1116       C  0.89883289  0.69851097  0.66044220    -0.19500
C1117       C  0.90121359  0.69871395  0.70599282    -0.28900
C1118       C  0.91807051  0.69218691  0.72367583     0.44000
C1119       C  0.94331051  0.67527424  0.62349189     0.05200
O1120       O  0.90999036  0.69148691  0.58867615    -0.57400
H1121       H  0.88615536  0.70370732  0.64603241     0.18100
O1122       O  0.92097363  0.69180137  0.76790836    -0.64200
H1123       H  0.94433718  0.67947480  0.71043266     0.16600
C1124       C  0.96201309  0.68077619  0.62405634     0.28800
C1125       C  0.97537122  0.67026307  0.60184276    -0.25100
C1126       C  0.97038491  0.65398498  0.57953753    -0.24300
C1127       C  0.95147751  0.64881153  0.57824857     0.40300
C1128       C  0.93816487  0.65951197  0.59984411    -0.26800
O1129       O  0.96729029  0.69648846  0.64597003    -0.58700
H1130       H  0.98973060  0.67462149  0.60315073     0.15900
O1131       O  0.94578547  0.63325695  0.55631651    -0.60100
H1132       H  0.92381936  0.65504833  0.59955420     0.14400
H1133       H  0.92811165  0.70320948  0.77440868     0.46200
H1134       H  0.97339018  0.69205392  0.67298909     0.41600
H1135       H  0.94496468  0.62341979  0.57884122     0.45000
H1136       H  0.91587735  0.70302690  0.57787194     0.36500
C1137       C  0.99049495  0.48569007  0.52499939    -0.27700
C1138       C  0.00730085  0.49271661  0.50814562     0.01900
C1139       C  0.01955952  0.48048369  0.48720256     0.30000
C1140       C  0.01508339  0.46171291  0.48330956    -0.19500
C1141       C  0.99826351  0.45446477  0.49982897    -0.28900
C1142       C  0.98594041  0.46673920  0.52102954     0.44000
C1143       C  0.01176158  0.51287772  0.51082642     0.05200
O1144       O  0.03588598  0.48680913  0.46959920    -0.57400
H1145       H  0.02491111  0.45283190  0.46655105     0.18100
O1146       O  0.96966921  0.46038289  0.53875899    -0.64200
H1147       H  0.98089150  0.49494380  0.54136112     0.16600
C1148       C  0.00039803  0.52603373  0.49016001     0.28800
C1149       C  0.00437435  0.54496861  0.49379256    -0.25100
C1150       C  0.01983329  0.55126865  0.51739051    -0.24300
C1151       C  0.03165737  0.53811397  0.53674714     0.40300
C1152       C  0.02766807  0.51906205  0.53309242    -0.26800
O1153       O  0.98516550  0.52053156  0.46684138    -0.58700
H1154       H  0.99494426  0.55488209  0.47925793     0.15900
O1155       O  0.04647655  0.54373673  0.56134726    -0.60100
H1156       H  0.03666361  0.50911462  0.54891794     0.14400
H1157       H  0.96020005  0.46237746  0.51584192     0.46200
H1158       H  0.98991281  0.51780829  0.43709004     0.41600
H1159       H  0.04156336  0.54504521  0.59148423     0.45000
H1160       H  0.03270662  0.49089928  0.43963744     0.36500
C1161       C  0.41630300  0.81080843  0.43016728    -0.27700
C1162       C  0.42231029  0.82922019  0.42769633     0.01900
C1163       C  0.41399812  0.84145643  0.39781565     0.30000
C1164       C  0.39986809  0.83515016  0.37060421    -0.19500
C1165       C  0.39404775  0.81666581  0.37253244    -0.28900
C1166       C  0.40224403  0.80445900  0.40269442     0.44000
C1167       C  0.43743812  0.83563800  0.45592863     0.05200
O1168       O  0.42031314  0.85929802  0.39347688    -0.57400
H1169       H  0.39386929  0.84456731  0.34698473     0.18100
O1170       O  0.39618218  0.78651354  0.40646165    -0.64200
H1171       H  0.42252461  0.80138762  0.45343401     0.16600
C1172       C  0.43436809  0.85002951  0.48588103     0.28800
C1173       C  0.44928362  0.85775963  0.50807807    -0.25100
C1174       C  0.46746002  0.85129717  0.50099449    -0.24300
C1175       C  0.47033580  0.83598889  0.47311498     0.40300
C1176       C  0.45529106  0.82820761  0.45091424    -0.26800
O1177       O  0.41691700  0.85711488  0.49237045    -0.58700
H1178       H  0.44663413  0.86931127  0.52983668     0.15900
O1179       O  0.48778392  0.82904593  0.46583045    -0.60100
H1180       H  0.45769210  0.81695474  0.42814413     0.14400
H1181       H  0.40511610  0.77901200  0.38923245     0.46200
H1182       H  0.41119867  0.84907118  0.51492565     0.41600
H1183       H  0.49255024  0.83586211  0.44001714     0.45000
H1184       H  0.41048714  0.86723570  0.40636984     0.36500
C1185       C  0.11279329  0.68173841  0.41769367    -0.27700
C1186       C  0.10924602  0.66553979  0.39363771     0.01900
C1187       C  0.11586128  0.66435092  0.35035814     0.30000
C1188       C  0.12464473  0.67961878  0.33096056    -0.19500
C1189       C  0.12683966  0.69634550  0.35400269    -0.28900
C1190       C  0.12154450  0.69699266  0.39836778     0.44000
C1191       C  0.09694238  0.65103446  0.41270628     0.05200
O1192       O  0.11292852  0.64869864  0.32594548    -0.57400
H1193       H  0.12847747  0.67877853  0.29677739     0.18100
O1194       O  0.12367361  0.71289897  0.42237304    -0.64200
H1195       H  0.10775700  0.68301671  0.45092748     0.16600
C1196       C  0.09996040  0.64407777  0.45507598     0.28800
C1197       C  0.08632018  0.63335456  0.47576867    -0.25100
C1198       C  0.06941313  0.62944463  0.45495295    -0.24300
C1199       C  0.06710340  0.63504165  0.41113302     0.40300
C1200       C  0.08075810  0.64577065  0.39047252    -0.26800
O1201       O  0.11573563  0.64858724  0.47756880    -0.58700
H1202       H  0.08845583  0.62927927  0.50941614     0.15900
O1203       O  0.05104103  0.63115128  0.38909988    -0.60100
H1204       H  0.07811963  0.65096595  0.35790323     0.14400
H1205       H  0.13665198  0.71256241  0.43291815     0.46200
H1206       H  0.12533287  0.63984728  0.46681512     0.41600
H1207       H  0.05331314  0.61906469  0.37462528     0.45000
H1208       H  0.12291338  0.64000907  0.33458898     0.36500
C1209       C  0.08719348  0.69987714  0.12292510    -0.27700
C1210       C  0.07194596  0.69082911  0.14153356     0.01900
C1211       C  0.06893525  0.69169269  0.18675404     0.30000
C1212       C  0.08123358  0.70145825  0.21307754    -0.19500
C1213       C  0.09662636  0.71057121  0.19484578    -0.28900
C1214       C  0.09951605  0.70980309  0.14921976     0.44000
C1215       C  0.05976440  0.67946920  0.11425018     0.05200
O1216       O  0.05442875  0.68234290  0.20565474    -0.57400
H1217       H  0.07877075  0.70170252  0.24799184     0.18100
O1218       O  0.11393887  0.71910706  0.12987132    -0.64200
H1219       H  0.08953547  0.69920972  0.08798773     0.16600
C1220       C  0.04126522  0.68464919  0.10699412     0.28800
C1221       C  0.02919317  0.67235296  0.08630489    -0.25100
C1222       C  0.03542315  0.65484367  0.07247686    -0.24300
C1223       C  0.05433474  0.65013115  0.07810803     0.40300
C1224       C  0.06628842  0.66243986  0.09894262    -0.26800
O1225       O  0.03473458  0.70142974  0.12139219    -0.58700
H1226       H  0.01484332  0.67637966  0.08202382     0.15900
O1227       O  0.06113950  0.63318963  0.06553035    -0.60100
H1228       H  0.08054338  0.65837682  0.10471780     0.14400
H1229       H  0.12309306  0.70940910  0.12191724     0.46200
H1230       H  0.03804034  0.71036031  0.09804441     0.41600
H1231       H  0.06646195  0.63519715  0.03600983     0.45000
H1232       H  0.04455707  0.69175596  0.20980607     0.36500
C1233       C  0.22679554  0.75531173  0.28075074    -0.27700
C1234       C  0.23041633  0.77394449  0.29122288     0.01900
C1235       C  0.21575203  0.78552048  0.30414425     0.30000
C1236       C  0.19767982  0.77871132  0.30443229    -0.19500
C1237       C  0.19381827  0.76041559  0.29160899    -0.28900
C1238       C  0.20858217  0.74845470  0.28118804     0.44000
C1239       C  0.24930687  0.78157752  0.28632385     0.05200
O1240       O  0.21875961  0.80395951  0.31251130    -0.57400
H1241       H  0.18645562  0.78817107  0.31217990     0.18100
O1242       O  0.20525920  0.73067717  0.26754991    -0.64200
H1243       H  0.23804921  0.74626916  0.27085335     0.16600
C1244       C  0.25848430  0.78970022  0.32199313     0.28800
C1245       C  0.27640113  0.79670189  0.31675798    -0.25100
C1246       C  0.28565512  0.79516026  0.27652401    -0.24300
C1247       C  0.27620340  0.78769498  0.24038497     0.40300
C1248       C  0.25812608  0.78099076  0.24544092    -0.26800
O1249       O  0.25043669  0.78997597  0.36263388    -0.58700
H1250       H  0.28362722  0.80189347  0.34522184     0.15900
O1251       O  0.28486143  0.78604735  0.20061824    -0.60100
H1252       H  0.25108517  0.77500988  0.21759885     0.14400
H1253       H  0.20561708  0.72307456  0.29448394     0.46200
H1254       H  0.25358759  0.77784824  0.37588529     0.41600
H1255       H  0.28183208  0.79763556  0.18480119     0.45000
H1256       H  0.21673632  0.80547050  0.34436149     0.36500
C1257       C  0.53702423  0.09636394  0.24101296    -0.27700
C1258       C  0.51889229  0.09794106  0.25682708     0.01900
C1259       C  0.50390768  0.09763547  0.22754291     0.30000
C1260       C  0.50726716  0.09648342  0.18260112    -0.19500
C1261       C  0.52551232  0.09595054  0.16656807    -0.28900
C1262       C  0.54043981  0.09552197  0.19624750     0.44000
C1263       C  0.51602660  0.10144271  0.30362854     0.05200
O1264       O  0.48602575  0.09918465  0.24248736    -0.57400
H1265       H  0.49566648  0.09704201  0.16025694     0.18100
O1266       O  0.55844679  0.09450050  0.18177191    -0.64200
H1267       H  0.54863158  0.09663837  0.26338249     0.16600
C1268       C  0.52143666  0.08838025  0.33504063     0.28800
C1269       C  0.51919096  0.09234844  0.37939302    -0.25100
C1270       C  0.51198256  0.10950469  0.39305565    -0.24300
C1271       C  0.50713697  0.12283333  0.36120729     0.40300
C1272       C  0.50907733  0.11864564  0.31691614    -0.26800
O1273       O  0.52841712  0.07150086  0.32257163    -0.58700
H1274       H  0.52297633  0.08187549  0.40306217     0.15900
O1275       O  0.50089168  0.14011889  0.37286174    -0.60100
H1276       H  0.50541135  0.12898922  0.29279471     0.14400
H1277       H  0.56341859  0.10726059  0.18450513     0.46200
H1278       H  0.54205035  0.07261715  0.32575999     0.41600
H1279       H  0.48747972  0.14020233  0.36596345     0.45000
H1280       H  0.48194039  0.08629085  0.24813650     0.36500
C1281       C  0.51531815  0.11292535  0.73216642    -0.27700
C1282       C  0.50011659  0.10761616  0.75785816     0.01900
C1283       C  0.48427708  0.10022221  0.73802099     0.30000
C1284       C  0.48376004  0.09817948  0.69272780    -0.19500
C1285       C  0.49895273  0.10346735  0.66659110    -0.28900
C1286       C  0.51483519  0.11096504  0.68677846     0.44000
C1287       C  0.50092567  0.11008013  0.80541248     0.05200
O1288       O  0.46896005  0.09575046  0.76251821    -0.57400
H1289       H  0.47122647  0.09280150  0.67802606     0.18100
O1290       O  0.53006199  0.11610880  0.66271693    -0.64200
H1291       H  0.52760054  0.11860828  0.74743283     0.16600
C1292       C  0.50179203  0.09468280  0.83347886     0.28800
C1293       C  0.50379348  0.09737625  0.87841690    -0.25100
C1294       C  0.50542028  0.11532173  0.89538870    -0.24300
C1295       C  0.50419620  0.13071471  0.86736105     0.40300
C1296       C  0.50178557  0.12802335  0.82262705    -0.26800
O1297       O  0.50155662  0.07700541  0.81704863    -0.58700
H1298       H  0.50524386  0.08545631  0.89963741     0.15900
O1299       O  0.50545575  0.14840755  0.88351963    -0.60100
H1300       H  0.50105933  0.13993041  0.80116151     0.14400
H1301       H  0.52872887  0.12965728  0.65829684     0.46200
H1302       H  0.51469490  0.07405348  0.81033453     0.41600
H1303       H  0.51836149  0.15238890  0.87733874     0.45000
H1304       H  0.46947543  0.08210659  0.76604699     0.36500
C1305       C  0.45865226  0.15516038  0.12439353    -0.27700
C1306       C  0.44757139  0.16574288  0.09639024     0.01900
C1307       C  0.45321509  0.16839490  0.05278109     0.30000
C1308       C  0.46947281  0.15991269  0.03735916    -0.19500
C1309       C  0.48008790  0.14860255  0.06499988    -0.28900
C1310       C  0.47479940  0.14668472  0.10912721     0.44000
C1311       C  0.43025969  0.17392630  0.11373812     0.05200
O1312       O  0.44269626  0.17880977  0.02478952    -0.57400
H1313       H  0.47337301  0.16157588  0.00339217     0.18100
O1314       O  0.48525013  0.13642349  0.13761535    -0.64200
H1315       H  0.45471513  0.15342844  0.15832671     0.16600
C1316       C  0.41643939  0.16256197  0.13208638     0.28800
C1317       C  0.40128894  0.17053361  0.15367293    -0.25100
C1318       C  0.39981062  0.18986075  0.15802522    -0.24300
C1319       C  0.41316336  0.20123044  0.13738849     0.40300
C1320       C  0.42824751  0.19321749  0.11552280    -0.26800
O1321       O  0.41770908  0.14362861  0.12915561    -0.58700
H1322       H  0.39111064  0.16148930  0.16864339     0.15900
O1323       O  0.41196215  0.22017245  0.13946332    -0.60100
H1324       H  0.43878953  0.20209423  0.10140674     0.14400
H1325       H  0.49505330  0.14496416  0.14803734     0.46200
H1326       H  0.42174766  0.13942052  0.15844039     0.41600
H1327       H  0.40380577  0.22373986  0.11485862     0.45000
H1328       H  0.43341288  0.17009805  0.01266743     0.36500
C1329       C  0.62487389  0.16353778  0.83133034    -0.27700
C1330       C  0.61818324  0.16490267  0.87422825     0.01900
C1331       C  0.61842161  0.18227689  0.89530115     0.30000
C1332       C  0.62417173  0.19808400  0.87262859    -0.19500
C1333       C  0.62955927  0.19700776  0.82859111    -0.28900
C1334       C  0.63061710  0.17935740  0.80852714     0.44000
C1335       C  0.60855695  0.14897755  0.89487366     0.05200
O1336       O  0.61181329  0.18419806  0.93712402    -0.57400
H1337       H  0.62331369  0.21139914  0.88887926     0.18100
O1338       O  0.63564313  0.17751907  0.76551344    -0.64200
H1339       H  0.62478708  0.15027707  0.81473192     0.16600
C1340       C  0.59237704  0.14166295  0.87574658     0.28800
C1341       C  0.58040828  0.13061471  0.90059589    -0.25100
C1342       C  0.58444945  0.12656018  0.94424565    -0.24300
C1343       C  0.60155998  0.13214183  0.96181372     0.40300
C1344       C  0.61352211  0.14328075  0.93708044    -0.26800
O1345       O  0.58690098  0.14722979  0.83496642    -0.58700
H1346       H  0.56705502  0.12680789  0.88715443     0.15900
O1347       O  0.60553175  0.12896157  0.00491985    -0.60100
H1348       H  0.62594225  0.14874769  0.95214236     0.14400
H1349       H  0.64914232  0.17491583  0.76596632     0.46200
H1350       H  0.59006662  0.13675256  0.81534934     0.41600
H1351       H  0.61068764  0.11623205  0.00577291     0.45000
H1352       H  0.59831475  0.18644963  0.93398158     0.36500
C1353       C  0.48278163  0.91438938  0.82093544    -0.27700
C1354       C  0.49634609  0.90432796  0.79879608     0.01900
C1355       C  0.51216329  0.89794581  0.82080869     0.30000
C1356       C  0.51382999  0.90100425  0.86560869    -0.19500
C1357       C  0.49981257  0.91042998  0.88845628    -0.28900
C1358       C  0.48439489  0.91758761  0.86536758     0.44000
C1359       C  0.49385300  0.90088010  0.75235722     0.05200
O1360       O  0.52612207  0.88905109  0.79856438    -0.57400
H1361       H  0.52583328  0.89560688  0.88256054     0.18100
O1362       O  0.47023627  0.92682191  0.88607157    -0.64200
H1363       H  0.47066209  0.91944200  0.80379539     0.16600
C1364       C  0.49219468  0.88276064  0.73633165     0.28800
C1365       C  0.49162612  0.87980913  0.69148631    -0.25100
C1366       C  0.49239589  0.89487167  0.66247050    -0.24300
C1367       C  0.49212329  0.91309939  0.67914963     0.40300
C1368       C  0.49304217  0.91596408  0.72392701    -0.26800
O1369       O  0.49166862  0.86789151  0.76417560    -0.58700
H1370       H  0.49130254  0.86569104  0.67948349     0.15900
O1371       O  0.49221511  0.92822034  0.65217030    -0.60100
H1372       H  0.49378283  0.92999354  0.73645523     0.14400
H1373       H  0.47343205  0.94014093  0.88355042     0.46200
H1374       H  0.47848476  0.86673701  0.77307741     0.41600
H1375       H  0.47897729  0.93155514  0.64837526     0.45000
H1376       H  0.52476901  0.87575504  0.80604420     0.36500
C1377       C  0.50977115  0.91245811  0.22504955    -0.27700
C1378       C  0.50987235  0.89642743  0.25082138     0.01900
C1379       C  0.51094613  0.87896238  0.23043785     0.30000
C1380       C  0.51132673  0.87776914  0.18488447    -0.19500
C1381       C  0.51104409  0.89385768  0.15903150    -0.28900
C1382       C  0.51064993  0.91131531  0.17965413     0.44000
C1383       C  0.50898899  0.89825835  0.29885283     0.05200
O1384       O  0.51148471  0.86298854  0.25464434    -0.57400
H1385       H  0.51163409  0.86419750  0.16976429     0.18100
O1386       O  0.51008999  0.92736788  0.15583132    -0.64200
H1387       H  0.50870912  0.92599481  0.24017112     0.16600
C1388       C  0.52113102  0.91031901  0.32074872     0.28800
C1389       C  0.52005761  0.91215886  0.36591038    -0.25100
C1390       C  0.50724718  0.90179790  0.39040194    -0.24300
C1391       C  0.49496729  0.88976700  0.36852376     0.40300
C1392       C  0.49585398  0.88815930  0.32301321    -0.26800
O1393       O  0.53444657  0.92006713  0.29840831    -0.58700
H1394       H  0.52972156  0.92141197  0.38189444     0.15900
O1395       O  0.48275105  0.87882158  0.39125292    -0.60100
H1396       H  0.48631142  0.87892794  0.30657473     0.14400
H1397       H  0.52282056  0.93246475  0.15765516     0.46200
H1398       H  0.54527609  0.91162430  0.29658831     0.41600
H1399       H  0.47094228  0.88586335  0.39177249     0.45000
H1400       H  0.52463675  0.86153301  0.26334420     0.36500
C1401       C  0.53902998  0.82193884  0.95230505    -0.27700
C1402       C  0.55750566  0.82781649  0.94867492     0.01900
C1403       C  0.56282738  0.84486014  0.96646871     0.30000
C1404       C  0.54965469  0.85613705  0.98657044    -0.19500
C1405       C  0.53093903  0.85068492  0.98954347    -0.28900
C1406       C  0.52575152  0.83318461  0.97296549     0.44000
C1407       C  0.57092766  0.81717951  0.92256565     0.05200
O1408       O  0.58071364  0.85107181  0.96214636    -0.57400
H1409       H  0.55413042  0.86947793  0.99883338     0.18100
O1410       O  0.50776758  0.82714388  0.97563230    -0.64200
H1411       H  0.53485944  0.80879363  0.93835812     0.16600
C1412       C  0.58435862  0.80590543  0.94246613     0.28800
C1413       C  0.59785144  0.79711315  0.91677683    -0.25100
C1414       C  0.59798843  0.79943015  0.87123085    -0.24300
C1415       C  0.58476720  0.81116362  0.85167057     0.40300
C1416       C  0.57130215  0.81982837  0.87733548    -0.26800
O1417       O  0.58447538  0.80358131  0.98690320    -0.58700
H1418       H  0.60789891  0.78812411  0.93231263     0.15900
O1419       O  0.58496897  0.81438252  0.80751817    -0.60100
H1420       H  0.56128978  0.82892364  0.86201655     0.14400
H1421       H  0.50700163  0.82025134  0.00357755     0.46200
H1422       H  0.57747798  0.79197336  0.99222219     0.41600
H1423       H  0.59437788  0.82422435  0.80303472     0.45000
H1424       H  0.58721177  0.84660076  0.98860167     0.36500
C1425       C  0.38113288  0.85291632  0.14669525    -0.27700
C1426       C  0.38710278  0.86888679  0.16870864     0.01900
C1427       C  0.38005747  0.87282812  0.21058280     0.30000
C1428       C  0.36844210  0.86000304  0.23142315    -0.19500
C1429       C  0.36413227  0.84315770  0.21108215    -0.28900
C1430       C  0.36981046  0.83999750  0.16777605     0.44000
C1431       C  0.40280436  0.87945508  0.15026983     0.05200
O1432       O  0.38517530  0.88874588  0.23191838    -0.57400
H1433       H  0.36433666  0.86240620  0.26503214     0.18100
O1434       O  0.36603372  0.82345684  0.14758129    -0.64200
H1435       H  0.38653681  0.84970717  0.11449911     0.16600
C1436       C  0.42027293  0.87877952  0.17057768     0.28800
C1437       C  0.43595247  0.88531347  0.14852900    -0.25100
C1438       C  0.43455680  0.89253464  0.10610803    -0.24300
C1439       C  0.41680371  0.89445881  0.08718100     0.40300
C1440       C  0.40114077  0.88774418  0.10914594    -0.26800
O1441       O  0.42244840  0.86990935  0.20984877    -0.58700
H1442       H  0.44940347  0.88362892  0.16368855     0.15900
O1443       O  0.41474377  0.90117678  0.04560768    -0.60100
H1444       H  0.38778164  0.88814222  0.09308960     0.14400
H1445       H  0.35311315  0.82462562  0.13696724     0.46200
H1446       H  0.42564518  0.87978186  0.23105704     0.41600
H1447       H  0.41180495  0.91450680  0.04933199     0.45000
H1448       H  0.39285332  0.88467748  0.25694902     0.36500
C1449       C  0.52161091  0.98295903  0.05890955    -0.27700
C1450       C  0.51006808  0.99681512  0.04223447     0.01900
C1451       C  0.49180897  0.99210119  0.02979716     0.30000
C1452       C  0.48577849  0.97357212  0.03194515    -0.19500
C1453       C  0.49781411  0.95956124  0.04628492    -0.28900
C1454       C  0.51564866  0.96455289  0.06121843     0.44000
C1455       C  0.51774293  0.01579134  0.03594806     0.05200
O1456       O  0.48000879  0.00535470  0.01387823    -0.57400
H1457       H  0.47216975  0.97000915  0.01967143     0.18100
O1458       O  0.52789105  0.95121431  0.07499114    -0.64200
H1459       H  0.53570097  0.98624022  0.06833407     0.16600
C1460       C  0.52654744  0.02527507  0.07042852     0.28800
C1461       C  0.53397884  0.04298685  0.06361510    -0.25100
C1462       C  0.53249510  0.05173829  0.02281784    -0.24300
C1463       C  0.52427984  0.04199850  0.98796120     0.40300
C1464       C  0.51706238  0.02418649  0.99461917    -0.26800
O1465       O  0.52731796  0.01766242  0.11140864    -0.58700
H1466       H  0.53977265  0.05039383  0.09116588     0.15900
O1467       O  0.52264772  0.05003662  0.94759316    -0.60100
H1468       H  0.51078654  0.01694504  0.96743515     0.14400
H1469       H  0.53130726  0.95470230  0.10522472     0.46200
H1470       H  0.51522842  0.02070387  0.12519537     0.41600
H1471       H  0.53479461  0.04797710  0.93310827     0.45000
H1472       H  0.47459950  0.01139614  0.04007609     0.36500
C1473       C  0.65660099  0.28572640  0.93697112    -0.27700
C1474       C  0.64490804  0.27824908  0.96905324     0.01900
C1475       C  0.62849904  0.26923552  0.95650062     0.30000
C1476       C  0.62389585  0.26793665  0.91230531    -0.19500
C1477       C  0.63556539  0.27538619  0.87986457    -0.28900
C1478       C  0.65213208  0.28428801  0.89268278     0.44000
C1479       C  0.64886501  0.28169837  0.01559698     0.05200
O1480       O  0.61642531  0.26248954  0.98734897    -0.57400
H1481       H  0.61117622  0.26090835  0.90351160     0.18100
O1482       O  0.66415107  0.29152649  0.86237988    -0.64200
H1483       H  0.66918845  0.29285372  0.94639832     0.16600
C1484       C  0.65125371  0.26710818  0.04556221     0.28800
C1485       C  0.65248710  0.27094800  0.09032439    -0.25100
C1486       C  0.65122354  0.28926301  0.10558328    -0.24300
C1487       C  0.64992157  0.30387352  0.07512886     0.40300
C1488       C  0.64893390  0.30001089  0.03056192    -0.26800
O1489       O  0.65169698  0.24906601  0.03156253    -0.58700
H1490       H  0.65337134  0.25954246  0.11320614     0.15900
O1491       O  0.64929687  0.32199469  0.08867024    -0.60100
H1492       H  0.64728668  0.31135279  0.00772414     0.14400
H1493       H  0.66040954  0.30467319  0.85910671     0.46200
H1494       H  0.66491972  0.24652007  0.02490333     0.41600
H1495       H  0.63608011  0.32568966  0.08646409     0.45000
H1496       H  0.61811606  0.24885435  0.98685213     0.36500
C1497       C  0.64404409  0.24849313  0.53432956    -0.27700
C1498       C  0.63918913  0.26499769  0.51365118     0.01900
C1499       C  0.63532291  0.28090977  0.53872888     0.30000
C1500       C  0.63596849  0.28002635  0.58432091    -0.19500
C1501       C  0.64063492  0.26339847  0.60525814    -0.28900
C1502       C  0.64480778  0.24755969  0.57971552     0.44000
C1503       C  0.63656925  0.26501814  0.46612673     0.05200
O1504       O  0.63058546  0.29726952  0.51892002    -0.57400
H1505       H  0.63280209  0.29231647  0.60326054     0.18100
O1506       O  0.64857416  0.23077196  0.59873139    -0.64200
H1507       H  0.64665580  0.23610896  0.51523346     0.16600
C1508       C  0.65145857  0.26198625  0.43714549     0.28800
C1509       C  0.64856028  0.26323092  0.39205171    -0.25100
C1510       C  0.63086909  0.26734088  0.37584314    -0.24300
C1511       C  0.61578426  0.26900347  0.40503044     0.40300
C1512       C  0.61874232  0.26796516  0.44979973    -0.26800
O1513       O  0.66903305  0.25909579  0.45267645    -0.58700
H1514       H  0.66029659  0.26211237  0.37001141     0.15900
O1515       O  0.59819125  0.27243435  0.39014906    -0.60100
H1516       H  0.60713059  0.26978974  0.47196402     0.14400
H1517       H  0.66226737  0.22954612  0.59769957     0.46200
H1518       H  0.67081791  0.24547845  0.45185365     0.41600
H1519       H  0.59312785  0.26011775  0.38222454     0.45000
H1520       H  0.64253515  0.30310391  0.51063430     0.36500
C1521       C  0.55981984  0.19118910  0.13987764    -0.27700
C1522       C  0.57883404  0.19099120  0.14839548     0.01900
C1523       C  0.58957488  0.17553424  0.13649790     0.30000
C1524       C  0.58132372  0.16077539  0.11431698    -0.19500
C1525       C  0.56242118  0.16137711  0.10344038    -0.28900
C1526       C  0.55153430  0.17652978  0.11775741     0.44000
C1527       C  0.58739228  0.20753501  0.16745917     0.05200
O1528       O  0.60806956  0.17474929  0.14674628    -0.57400
H1529       H  0.58988525  0.14916068  0.10441758     0.18100
O1530       O  0.53290542  0.17752029  0.10914442    -0.64200
H1531       H  0.55147232  0.20304715  0.14923956     0.16600
C1532       C  0.60025119  0.21793730  0.14320143     0.28800
C1533       C  0.60800699  0.23382509  0.16130716    -0.25100
C1534       C  0.60281218  0.23978066  0.20328638    -0.24300
C1535       C  0.58946123  0.22964298  0.22701062     0.40300
C1536       C  0.58189496  0.21355769  0.20901859    -0.26800
O1537       O  0.60514435  0.21279800  0.10158604    -0.58700
H1538       H  0.61800106  0.24161058  0.14221827     0.15900
O1539       O  0.58430366  0.23485621  0.26837883    -0.60100
H1540       H  0.57179533  0.20569127  0.22758927     0.14400
H1541       H  0.52678981  0.17105653  0.13386186     0.46200
H1542       H  0.59570042  0.21854189  0.08241107     0.41600
H1543       H  0.57257354  0.24184924  0.26467883     0.45000
H1544       H  0.61476517  0.17672005  0.11879599     0.36500
C1545       C  0.85231942  0.24769267  0.54026744    -0.27700
C1546       C  0.83687176  0.25754277  0.52499385     0.01900
C1547       C  0.82359482  0.26414872  0.55491205     0.30000
C1548       C  0.82640223  0.26169064  0.59961509    -0.19500
C1549       C  0.84247603  0.25290180  0.61501967    -0.28900
C1550       C  0.85528523  0.24551159  0.58500000     0.44000
C1551       C  0.83505148  0.26107311  0.47781461     0.05200
O1552       O  0.80829562  0.27372455  0.54089966    -0.57400
H1553       H  0.81660930  0.26779492  0.62228870     0.18100
O1554       O  0.87071367  0.23617359  0.59910138    -0.64200
H1555       H  0.86233360  0.24203476  0.51740979     0.16600
C1556       C  0.84938242  0.26990020  0.45446404     0.28800
C1557       C  0.84823480  0.27158352  0.40911341    -0.25100
C1558       C  0.83304373  0.26424341  0.38648513    -0.24300
C1559       C  0.81826403  0.25625195  0.41019850     0.40300
C1560       C  0.81930918  0.25483185  0.45561041    -0.26800
O1561       O  0.86451593  0.27695296  0.47582628    -0.58700
H1562       H  0.85969220  0.27782141  0.39148815     0.15900
O1563       O  0.80276123  0.24978061  0.38930339    -0.60100
H1564       H  0.80811301  0.24819214  0.47333999     0.14400
H1565       H  0.88107602  0.24512857  0.59631983     0.46200
H1566       H  0.87477652  0.26816473  0.46966406     0.41600
H1567       H  0.80424272  0.23612362  0.38830687     0.45000
H1568       H  0.81200326  0.28695109  0.54139527     0.36500
C1569       C  0.85912674  0.27763415  0.04152944    -0.27700
C1570       C  0.84109837  0.27602999  0.02515873     0.01900
C1571       C  0.82589083  0.27639632  0.05399001     0.30000
C1572       C  0.82894248  0.27747462  0.09891474    -0.19500
C1573       C  0.84704930  0.27811709  0.11558782    -0.28900
C1574       C  0.86221059  0.27858420  0.08638596     0.44000
C1575       C  0.83851960  0.27337900  0.97796387     0.05200
O1576       O  0.80815043  0.27420121  0.03875269    -0.57400
H1577       H  0.81712498  0.27667373  0.12073428     0.18100
O1578       O  0.88009515  0.27970929  0.10129055    -0.64200
H1579       H  0.87089710  0.27770226  0.01942089     0.16600
C1580       C  0.82777180  0.28583543  0.95368108     0.28800
C1581       C  0.82627747  0.28357670  0.90872667    -0.25100
C1582       C  0.83591999  0.26932725  0.88691162    -0.24300
C1583       C  0.84654693  0.25670071  0.91140219     0.40300
C1584       C  0.84765352  0.25872334  0.95671026    -0.26800
O1585       O  0.81932407  0.30072644  0.97327412    -0.58700
H1586       H  0.81810814  0.29356881  0.89071720     0.15900
O1587       O  0.85637089  0.24276301  0.89147160    -0.60100
H1588       H  0.85602399  0.24907893  0.97526464     0.14400
H1589       H  0.88506885  0.26691647  0.09932815     0.46200
H1590       H  0.82870818  0.31076220  0.97272260     0.41600
H1591       H  0.86877073  0.24811193  0.88526533     0.45000
H1592       H  0.80185919  0.28620762  0.04423403     0.36500
C1593       C  0.93476968  0.32488255  0.39426174    -0.27700
C1594       C  0.93158827  0.33029698  0.35104166     0.01900
C1595       C  0.93815931  0.34761150  0.33664187     0.30000
C1596       C  0.94741036  0.35939425  0.36570219    -0.19500
C1597       C  0.95032210  0.35416360  0.40944549    -0.28900
C1598       C  0.94409766  0.33652330  0.42328951     0.44000
C1599       C  0.91984047  0.31845263  0.32299616     0.05200
O1600       O  0.93539571  0.35323809  0.29439663    -0.57400
H1601       H  0.95227100  0.37268420  0.35389647     0.18100
O1602       O  0.94644581  0.33067778  0.46550692    -0.64200
H1603       H  0.92949447  0.31173955  0.40601500     0.16600
C1604       C  0.92423133  0.29971450  0.31544997     0.28800
C1605       C  0.91149711  0.28814531  0.29427940    -0.25100
C1606       C  0.89417338  0.29495848  0.28079827    -0.24300
C1607       C  0.89018614  0.31399764  0.28693077     0.40300
C1608       C  0.90300593  0.32551388  0.30763468    -0.26800
O1609       O  0.94099555  0.29266231  0.32844465    -0.58700
H1610       H  0.91504893  0.27370577  0.28939883     0.15900
O1611       O  0.87363677  0.32150675  0.27383023    -0.60100
H1612       H  0.89939391  0.33987983  0.31351217     0.14400
H1613       H  0.95789684  0.32306199  0.46500695     0.46200
H1614       H  0.93823636  0.28501137  0.35455188     0.41600
H1615       H  0.86546521  0.32094658  0.29991900     0.45000
H1616       H  0.94565486  0.34754951  0.27739893     0.36500
C1617       C  0.72138245  0.29505664  0.20795170    -0.27700
C1618       C  0.72996200  0.28512734  0.24179702     0.01900
C1619       C  0.72089013  0.28392078  0.28254607     0.30000
C1620       C  0.70289025  0.29102604  0.28757601    -0.19500
C1621       C  0.69373086  0.29965401  0.25261241    -0.28900
C1622       C  0.70349934  0.30238154  0.21315500     0.44000
C1623       C  0.74852549  0.27654066  0.23443045     0.05200
O1624       O  0.72963882  0.27608221  0.31773800    -0.57400
H1625       H  0.69572291  0.28898987  0.31836337     0.18100
O1626       O  0.69507565  0.31052476  0.17797988    -0.64200
H1627       H  0.72827105  0.29647074  0.17663689     0.16600
C1628       C  0.75222062  0.25777797  0.24466993     0.28800
C1629       C  0.77043043  0.25081787  0.24205587    -0.25100
C1630       C  0.78502074  0.26229087  0.22839199    -0.24300
C1631       C  0.78088972  0.28041134  0.21390959     0.40300
C1632       C  0.76287909  0.28740949  0.21733135    -0.26800
O1633       O  0.73826752  0.24628796  0.25853884    -0.58700
H1634       H  0.77329832  0.23689512  0.25336105     0.15900
O1635       O  0.79474099  0.29191437  0.19939583    -0.60100
H1636       H  0.76032266  0.30170625  0.20840309     0.14400
H1637       H  0.69771967  0.32394317  0.18097694     0.46200
H1638       H  0.73176653  0.24239946  0.23157638     0.41600
H1639       H  0.79355083  0.29202312  0.16716031     0.45000
H1640       H  0.72244048  0.26477449  0.32490579     0.36500
C1641       C  0.57952740  0.38497692  0.44328066    -0.27700
C1642       C  0.57865494  0.38130347  0.39836243     0.01900
C1643       C  0.56211022  0.38507420  0.37571224     0.30000
C1644       C  0.54633190  0.39090697  0.39868627    -0.19500
C1645       C  0.54677080  0.39316182  0.44423619    -0.28900
C1646       C  0.56376531  0.39083134  0.46629144     0.44000
C1647       C  0.59331274  0.36986231  0.37769823     0.05200
O1648       O  0.56059665  0.38099647  0.33211144    -0.57400
H1649       H  0.53338960  0.39247732  0.38119152     0.18100
O1650       O  0.56474591  0.39249604  0.51084973    -0.64200
H1651       H  0.59211320  0.38193949  0.46113227     0.16600
C1652       C  0.60243733  0.37534111  0.33905934     0.28800
C1653       C  0.61301162  0.36242287  0.31542343    -0.25100
C1654       C  0.61441909  0.34404011  0.32989174    -0.24300
C1655       C  0.60651390  0.33901581  0.37020701     0.40300
C1656       C  0.59619066  0.35192790  0.39396885    -0.26800
O1657       O  0.60001832  0.39282866  0.32260839    -0.58700
H1658       H  0.61871659  0.36632843  0.28397329     0.15900
O1659       O  0.60728672  0.32101832  0.38449190    -0.60100
H1660       H  0.58917337  0.34746127  0.42348999     0.14400
H1661       H  0.56207288  0.37993229  0.52238076     0.46200
H1662       H  0.61010752  0.40032110  0.33561304     0.41600
H1663       H  0.61827839  0.32045655  0.40379878     0.45000
H1664       H  0.56091252  0.39314046  0.31701086     0.36500
C1665       C  0.53883430  0.34724459  0.67374308    -0.27700
C1666       C  0.54555008  0.33046348  0.65666302     0.01900
C1667       C  0.54277225  0.32651896  0.61218666     0.30000
C1668       C  0.53372475  0.33932084  0.58539252    -0.19500
C1669       C  0.52740509  0.35641819  0.60191835    -0.28900
C1670       C  0.52990834  0.36020202  0.64684590     0.44000
C1671       C  0.55701759  0.31791179  0.68395228     0.05200
O1672       O  0.54938740  0.31039802  0.59418510    -0.57400
H1673       H  0.53200424  0.33592063  0.55119612     0.18100
O1674       O  0.52359585  0.37640011  0.66502818    -0.64200
H1675       H  0.54079836  0.35044920  0.70797793     0.16600
C1676       C  0.57374793  0.32428327  0.70190329     0.28800
C1677       C  0.58597301  0.31180911  0.72152714    -0.25100
C1678       C  0.58185407  0.29276917  0.72410171    -0.24300
C1679       C  0.56447549  0.28659268  0.70873625     0.40300
C1680       C  0.55230083  0.29911451  0.68852154    -0.26800
O1681       O  0.57898092  0.34244711  0.69728567    -0.58700
H1682       H  0.59909834  0.31707638  0.73330120     0.15900
O1683       O  0.55957214  0.26827755  0.71135920    -0.60100
H1684       H  0.53935903  0.29404352  0.67522972     0.14400
H1685       H  0.53448235  0.38478338  0.66536365     0.46200
H1686       H  0.57616681  0.34833087  0.72582137     0.41600
H1687       H  0.55290946  0.26707121  0.73959416     0.45000
H1688       H  0.56239262  0.31312707  0.58575663     0.36500
C1689       C  0.42431804  0.68749520  0.37718706    -0.27700
C1690       C  0.40543383  0.68674505  0.36706299     0.01900
C1691       C  0.39510751  0.67088744  0.37791296     0.30000
C1692       C  0.40335471  0.65663948  0.40187422    -0.19500
C1693       C  0.42186286  0.65807665  0.41567011    -0.28900
C1694       C  0.43258568  0.67334736  0.40145485     0.44000
C1695       C  0.39614678  0.70347234  0.35040163     0.05200
O1696       O  0.37687081  0.66940320  0.36570513    -0.57400
H1697       H  0.39494327  0.64486787  0.41133011     0.18100
O1698       O  0.45102050  0.67483212  0.41182223    -0.64200
H1699       H  0.43242426  0.69957844  0.36841127     0.16600
C1700       C  0.38271778  0.71244345  0.37625264     0.28800
C1701       C  0.37394542  0.72832580  0.36084324    -0.25100
C1702       C  0.37868742  0.73586150  0.32009022    -0.24300
C1703       C  0.39265841  0.72722979  0.29478714     0.40300
C1704       C  0.40123639  0.71106890  0.31001460    -0.26800
O1705       O  0.37826474  0.70592170  0.41702502    -0.58700
H1706       H  0.36356068  0.73491960  0.38124153     0.15900
O1707       O  0.39756138  0.73404068  0.25457785    -0.60100
H1708       H  0.41177999  0.70439036  0.29021521     0.14400
H1709       H  0.45146732  0.68330269  0.43731511     0.46200
H1710       H  0.38779809  0.71116388  0.43674465     0.41600
H1711       H  0.40859412  0.74190601  0.25992402     0.45000
H1712       H  0.36956189  0.67074237  0.39301882     0.36500
C1713       C  0.45292222  0.52227285  0.47896323    -0.27700
C1714       C  0.46140339  0.51403898  0.51537259     0.01900
C1715       C  0.46234672  0.52420832  0.55466020     0.30000
C1716       C  0.45575843  0.54249220  0.55632253    -0.19500
C1717       C  0.44765869  0.55082498  0.51953101    -0.28900
C1718       C  0.44584364  0.54031561  0.48096889     0.44000
C1719       C  0.46887820  0.49479778  0.51189894     0.05200
O1720       O  0.46997390  0.51655475  0.59142068    -0.57400
H1721       H  0.45751207  0.55040100  0.58611153     0.18100
O1722       O  0.43881049  0.54810976  0.44370235    -0.64200
H1723       H  0.45229354  0.51489679  0.44820443     0.16600
C1724       C  0.45788618  0.48055807  0.49424645     0.28800
C1725       C  0.46459524  0.46243039  0.49276339    -0.25100
C1726       C  0.48218784  0.45784618  0.50915832    -0.24300
C1727       C  0.49357870  0.47209898  0.52525994     0.40300
C1728       C  0.48691261  0.49044813  0.52644895    -0.26800
O1729       O  0.43994558  0.48392528  0.48169571    -0.58700
H1730       H  0.45549190  0.45164097  0.48071997     0.15900
O1731       O  0.51051428  0.46808587  0.54310344    -0.60100
H1732       H  0.49570007  0.50123306  0.53964304     0.14400
H1733       H  0.42548422  0.54474014  0.44367786     0.46200
H1734       H  0.43993055  0.48264935  0.44944678     0.41600
H1735       H  0.51949569  0.46934962  0.51870355     0.45000
H1736       H  0.45956871  0.51016318  0.60634953     0.36500
C1737       C  0.85771438  0.16614642  0.15667156    -0.27700
C1738       C  0.87091304  0.16784370  0.12316133     0.01900
C1739       C  0.87515490  0.18557642  0.10696232     0.30000
C1740       C  0.86702964  0.20133932  0.12568750    -0.19500
C1741       C  0.85469411  0.19989956  0.16131387    -0.28900
C1742       C  0.84945760  0.18195244  0.17540603     0.44000
C1743       C  0.88170162  0.15153956  0.10766311     0.05200
O1744       O  0.88804676  0.18771144  0.07429131    -0.57400
H1745       H  0.87135164  0.21480686  0.11385774     0.18100
O1746       O  0.83712466  0.17964353  0.20912027    -0.64200
H1747       H  0.85425522  0.15255988  0.16929199     0.16600
C1748       C  0.89641713  0.14455015  0.13284406     0.28800
C1749       C  0.90958867  0.13268333  0.11382068    -0.25100
C1750       C  0.90821095  0.12734232  0.06973773    -0.24300
C1751       C  0.89227090  0.13276183  0.04612865     0.40300
C1752       C  0.87935658  0.14497970  0.06494190    -0.26800
O1753       O  0.89913812  0.15076577  0.17464902    -0.58700
H1754       H  0.92164418  0.12875598  0.13270072     0.15900
O1755       O  0.89023953  0.12802682  0.00304950    -0.60100
H1756       H  0.86809894  0.15025958  0.04518740     0.14400
H1757       H  0.82471529  0.17990398  0.19529061     0.46200
H1758       H  0.89171387  0.14234556  0.19336031     0.41600
H1759       H  0.88319537  0.11623671  0.00339322     0.45000
H1760       H  0.90014563  0.18873590  0.08939583     0.36500
C1761       C  0.91177839  0.18652508  0.90134566    -0.27700
C1762       C  0.91513696  0.18504739  0.85642296     0.01900
C1763       C  0.92503138  0.16978968  0.83998685     0.30000
C1764       C  0.93132117  0.15606372  0.86859937    -0.19500
C1765       C  0.92779288  0.15737365  0.91371005    -0.28900
C1766       C  0.91797535  0.17282318  0.92999583     0.44000
C1767       C  0.90681481  0.19882880  0.82705303     0.05200
O1768       O  0.92887609  0.16839444  0.79621182    -0.57400
H1769       H  0.93915603  0.14448905  0.85552234     0.18100
O1770       O  0.91412721  0.17456678  0.97370657    -0.64200
H1771       H  0.90395477  0.19817200  0.91408608     0.16600
C1772       C  0.88984845  0.19500371  0.80670597     0.28800
C1773       C  0.88069140  0.20891008  0.78356170    -0.25100
C1774       C  0.88816343  0.22688377  0.78059429    -0.24300
C1775       C  0.90557894  0.23046135  0.79992962     0.40300
C1776       C  0.91473968  0.21644625  0.82300611    -0.26800
O1777       O  0.88182136  0.17784906  0.81051042    -0.58700
H1778       H  0.86739423  0.20570811  0.76906778     0.15900
O1779       O  0.91359885  0.24765432  0.79744835    -0.60100
H1780       H  0.92779671  0.21947697  0.83887348     0.14400
H1781       H  0.90217488  0.16803101  0.97813834     0.46200
H1782       H  0.87463926  0.17829512  0.83817074     0.41600
H1783       H  0.90946254  0.25425877  0.82417949     0.45000
H1784       H  0.91951018  0.15966637  0.78452304     0.36500
C1785       C  0.03885719  0.84477210  0.19754804    -0.27700
C1786       C  0.04786830  0.82965026  0.17783256     0.01900
C1787       C  0.04699062  0.82758196  0.13218113     0.30000
C1788       C  0.03726152  0.84044813  0.10702357    -0.19500
C1789       C  0.02847904  0.85578622  0.12646956    -0.28900
C1790       C  0.02921884  0.85778563  0.17229913     0.44000
C1791       C  0.05908134  0.81663554  0.20439892     0.05200
O1792       O  0.05601034  0.81326240  0.11164540    -0.57400
H1793       H  0.03695612  0.83859357  0.07192465     0.18100
O1794       O  0.02057260  0.87233318  0.19281931    -0.64200
H1795       H  0.03931507  0.84650335  0.23266355     0.16600
C1796       C  0.07388731  0.82317297  0.22985175     0.28800
C1797       C  0.08596378  0.81062447  0.24975651    -0.25100
C1798       C  0.08351601  0.79137932  0.24518088    -0.24300
C1799       C  0.06796757  0.78484830  0.22191056     0.40300
C1800       C  0.05598484  0.79745543  0.20156153    -0.26800
O1801       O  0.07751341  0.84178698  0.23273498    -0.58700
H1802       H  0.09766242  0.81607212  0.26774917     0.15900
O1803       O  0.06490440  0.76623312  0.21665614    -0.60100
H1804       H  0.04450609  0.79222461  0.18245172     0.14400
H1805       H  0.00785439  0.86788694  0.19936546     0.46200
H1806       H  0.07289570  0.84556313  0.26195591     0.41600
H1807       H  0.05622169  0.76279550  0.24048390     0.45000
H1808       H  0.06879159  0.81782933  0.10638463     0.36500
C1809       C  0.96143127  0.02292592  0.03105832    -0.27700
C1810       C  0.97457330  0.01449015  0.00327775     0.01900
C1811       C  0.98234903  0.02479133  0.96904069     0.30000
C1812       C  0.97745766  0.04337165  0.96380636    -0.19500
C1813       C  0.96492756  0.05215942  0.99259238    -0.28900
C1814       C  0.95658263  0.04166140  0.02590648     0.44000
C1815       C  0.97928883  0.99466748  0.00886760     0.05200
O1816       O  0.99424227  0.01662226  0.93967993    -0.57400
H1817       H  0.98379912  0.05105837  0.93728822     0.18100
O1818       O  0.94455568  0.04975171  0.05495733    -0.64200
H1819       H  0.95516483  0.01501129  0.05727690     0.16600
C1820       C  0.99747328  0.98869055  0.01844689     0.28800
C1821       C  0.00103120  0.96979108  0.02602799    -0.25100
C1822       C  0.98659297  0.95679585  0.02404952    -0.24300
C1823       C  0.96865653  0.96282155  0.01214569     0.40300
C1824       C  0.96514392  0.98157515  0.00503054    -0.26800
O1825       O  0.01148730  0.00135078  0.02349095    -0.58700
H1826       H  0.01481940  0.96546725  0.03557727     0.15900
O1827       O  0.95422789  0.95050544  0.00901454    -0.60100
H1828       H  0.95119381  0.98595856  0.99695855     0.14400
H1829       H  0.93207463  0.04792256  0.04219317     0.46200
H1830       H  0.02009567  0.99914425  0.99870288     0.41600
H1831       H  0.95174474  0.94926903  0.97733623     0.45000
H1832       H  0.00654099  0.02227877  0.94522489     0.36500
C1833       C  0.36079771  0.76911668  0.07864131    -0.27700
C1834       C  0.34320647  0.76481080  0.06251842     0.01900
C1835       C  0.32872940  0.76048487  0.09174203     0.30000
C1836       C  0.33177813  0.76143373  0.13682600    -0.19500
C1837       C  0.34916166  0.76678416  0.15290865    -0.28900
C1838       C  0.36387630  0.77003723  0.12342247     0.44000
C1839       C  0.34028912  0.76490596  0.01501381     0.05200
O1840       O  0.31143801  0.75600363  0.07654011    -0.57400
H1841       H  0.32031820  0.75900989  0.15907288     0.18100
O1842       O  0.38122297  0.77467720  0.13806094    -0.64200
H1843       H  0.37213359  0.77200305  0.05633842     0.16600
C1844       C  0.34297941  0.78116878  0.99048697     0.28800
C1845       C  0.34141940  0.78066126  0.94500748    -0.25100
C1846       C  0.33720132  0.76402285  0.92349539    -0.24300
C1847       C  0.33423941  0.74779490  0.94846599     0.40300
C1848       C  0.33585356  0.74836151  0.99382000    -0.26800
O1849       O  0.34678666  0.79766076  0.01086363    -0.58700
H1850       H  0.34361004  0.79328707  0.92659025     0.15900
O1851       O  0.33075483  0.73106642  0.92885935    -0.60100
H1852       H  0.33408735  0.73572439  0.01246390     0.14400
H1853       H  0.38732603  0.76271132  0.14485279     0.46200
H1854       H  0.36032221  0.79952622  0.00713857     0.41600
H1855       H  0.31712759  0.72941380  0.93081522     0.45000
H1856       H  0.30502503  0.76802600  0.07234777     0.36500
C1857       C  0.34780477  0.78502678  0.57456744    -0.27700
C1858       C  0.32907692  0.78392805  0.56292921     0.01900
C1859       C  0.31544281  0.78302131  0.59564630     0.30000
C1860       C  0.32073778  0.78220231  0.63958008    -0.19500
C1861       C  0.33962282  0.78243506  0.65141209    -0.28900
C1862       C  0.35314245  0.78442688  0.61834548     0.44000
C1863       C  0.32430149  0.78363452  0.51621425     0.05200
O1864       O  0.29702637  0.78201807  0.58490887    -0.57400
H1865       H  0.31004819  0.78065859  0.66426108     0.18100
O1866       O  0.37164647  0.78534556  0.62822587    -0.64200
H1867       H  0.35836381  0.78612301  0.54942788     0.16600
C1868       C  0.31920960  0.80004902  0.49485181     0.28800
C1869       C  0.31902559  0.80061224  0.44925387    -0.25100
C1870       C  0.32390953  0.78492308  0.42452795    -0.24300
C1871       C  0.32745178  0.76807849  0.44594833     0.40300
C1872       C  0.32779357  0.76756382  0.49167834    -0.26800
O1873       O  0.31566186  0.81590072  0.51817853    -0.58700
H1874       H  0.31625990  0.81368151  0.43312382     0.15900
O1875       O  0.33268626  0.75268544  0.42272675    -0.60100
H1876       H  0.33190326  0.75490298  0.50799646     0.14400
H1877       H  0.37417765  0.79868469  0.63316335     0.46200
H1878       H  0.32778087  0.82230937  0.52048262     0.41600
H1879       H  0.32126468  0.74513963  0.42004713     0.45000
H1880       H  0.29260644  0.79502871  0.58488075     0.36500
C1881       C  0.39515559  0.83163692  0.85310717    -0.27700
C1882       C  0.41412476  0.82774246  0.85742874     0.01900
C1883       C  0.42117381  0.81131118  0.83860597     0.30000
C1884       C  0.40927595  0.79886934  0.81735614    -0.19500
C1885       C  0.39020416  0.80255294  0.81378568    -0.28900
C1886       C  0.38325415  0.81929011  0.83162497     0.44000
C1887       C  0.42610670  0.84007107  0.88451449     0.05200
O1888       O  0.43968661  0.80713862  0.84128690    -0.57400
H1889       H  0.41501083  0.78621513  0.80388003     0.18100
O1890       O  0.36473188  0.82352745  0.82957293    -0.64200
H1891       H  0.38936021  0.84398978  0.86791909     0.16600
C1892       C  0.42705061  0.85938665  0.87764107     0.28800
C1893       C  0.43800449  0.87058103  0.90503722    -0.25100
C1894       C  0.44791101  0.86285764  0.94011000    -0.24300
C1895       C  0.44715514  0.84343415  0.94622455     0.40300
C1896       C  0.43628940  0.83235901  0.91891556    -0.26800
O1897       O  0.41772021  0.86736526  0.84352531    -0.58700
H1898       H  0.43846809  0.88537575  0.89923048     0.15900
O1899       O  0.45695548  0.83499700  0.97895747    -0.60100
H1900       H  0.43562960  0.81759664  0.92511941     0.14400
H1901       H  0.35922232  0.81819624  0.85649291     0.46200
H1902       H  0.40704719  0.87391949  0.85700074     0.41600
H1903       H  0.46922498  0.83209651  0.96592776     0.45000
H1904       H  0.44558749  0.81392200  0.81676684     0.36500
C1905       C  0.36940904  0.65090268  0.57946793    -0.27700
C1906       C  0.37280022  0.65467585  0.62364818     0.01900
C1907       C  0.38655583  0.64450362  0.64575843     0.30000
C1908       C  0.39799105  0.63222747  0.62253372    -0.19500
C1909       C  0.39577321  0.62989809  0.57742134    -0.28900
C1910       C  0.38073933  0.63851455  0.55638962     0.44000
C1911       C  0.36471397  0.67147640  0.64404945     0.05200
O1912       O  0.39012683  0.64783945  0.68902081    -0.57400
H1913       H  0.40976371  0.62602016  0.63886953     0.18100
O1914       O  0.37851585  0.63677149  0.51212152    -0.64200
H1915       H  0.35891628  0.65867505  0.56207219     0.16600
C1916       C  0.37035286  0.68913606  0.62972350     0.28800
C1917       C  0.36508549  0.70499298  0.65302335    -0.25100
C1918       C  0.35426190  0.70363238  0.69118862    -0.24300
C1919       C  0.34763740  0.68592631  0.70378288     0.40300
C1920       C  0.35306337  0.67005276  0.68054688    -0.26800
O1921       O  0.38189046  0.69096372  0.59426432    -0.58700
H1922       H  0.37035137  0.71829793  0.64235186     0.15900
O1923       O  0.33663098  0.68377706  0.74001660    -0.60100
H1924       H  0.34862288  0.65653582  0.69182768     0.14400
H1925       H  0.37081474  0.62552032  0.50825916     0.46200
H1926       H  0.39461355  0.68944648  0.60592958     0.41600
H1927       H  0.32375847  0.68534837  0.72935749     0.45000
H1928       H  0.39933480  0.65804099  0.68922273     0.36500
C1929       C  0.14668419  0.74421997  0.06452689    -0.27700
C1930       C  0.13521374  0.75690298  0.04303038     0.01900
C1931       C  0.12738029  0.77169288  0.06703305     0.30000
C1932       C  0.13065137  0.77327126  0.11189566    -0.19500
C1933       C  0.14205116  0.76049338  0.13355147    -0.28900
C1934       C  0.15034668  0.74601355  0.10906283     0.44000
C1935       C  0.13182459  0.75491383  0.99547207     0.05200
O1936       O  0.11649897  0.78472910  0.04698753    -0.57400
H1937       H  0.12409255  0.78445970  0.12979903     0.18100
O1938       O  0.16203819  0.73341573  0.12815969    -0.64200
H1939       H  0.15270211  0.73267592  0.04685435     0.16600
C1940       C  0.14664829  0.75279508  0.96564648     0.28800
C1941       C  0.14329812  0.75351832  0.92069024    -0.25100
C1942       C  0.12533467  0.75651922  0.90495378    -0.24300
C1943       C  0.11036566  0.75715808  0.93457831     0.40300
C1944       C  0.11365747  0.75618890  0.97942820    -0.26800
O1945       O  0.16461095  0.75176617  0.98002651    -0.58700
H1946       H  0.15495648  0.75316246  0.89827852     0.15900
O1947       O  0.09255967  0.75963382  0.92009168    -0.60100
H1948       H  0.10202935  0.75716391  0.00181354     0.14400
H1949       H  0.15417241  0.72257875  0.13539617     0.46200
H1950       H  0.16846807  0.73875374  0.97486027     0.41600
H1951       H  0.08786747  0.74698255  0.91405318     0.45000
H1952       H  0.12531231  0.79370420  0.03389855     0.36500
C1953       C  0.14856389  0.79063029  0.56213154    -0.27700
C1954       C  0.14585666  0.77283603  0.54510443     0.01900
C1955       C  0.14574301  0.75749795  0.57355950     0.30000
C1956       C  0.14740891  0.76030504  0.61876179    -0.19500
C1957       C  0.14855282  0.77831412  0.63587742    -0.28900
C1958       C  0.14975033  0.79347073  0.60704291     0.44000
C1959       C  0.14233674  0.77101726  0.49777284     0.05200
O1960       O  0.14407671  0.73983157  0.55743553    -0.57400
H1961       H  0.14672517  0.74850653  0.64050315     0.18100
O1962       O  0.15187492  0.81118281  0.62257021    -0.64200
H1963       H  0.14891445  0.80252678  0.54057067     0.16600
C1964       C  0.12541524  0.76395523  0.48224207     0.28800
C1965       C  0.12150266  0.76447804  0.43756978    -0.25100
C1966       C  0.13418988  0.77218396  0.40762346    -0.24300
C1967       C  0.15115481  0.77924145  0.42343825     0.40300
C1968       C  0.15506889  0.77859230  0.46807011    -0.26800
O1969       O  0.11241596  0.75690678  0.51049343    -0.58700
H1970       H  0.10848488  0.75871990  0.42641346     0.15900
O1971       O  0.16415714  0.78662162  0.39569930    -0.60100
H1972       H  0.16805325  0.78427017  0.47970558     0.14400
H1973       H  0.13948003  0.81703649  0.61992553     0.46200
H1974       H  0.10499352  0.76773232  0.52019212     0.41600
H1975       H  0.16110443  0.79999609  0.39390215     0.45000
H1976       H  0.13173651  0.73541095  0.56731432     0.36500
C1977       C  0.06972173  0.66512155  0.68569454    -0.27700
C1978       C  0.06776517  0.68379386  0.67398203     0.01900
C1979       C  0.05730541  0.68849579  0.63708384     0.30000
C1980       C  0.04961919  0.67461638  0.61117724    -0.19500
C1981       C  0.05206625  0.65577194  0.62147336    -0.28900
C1982       C  0.06191422  0.65109618  0.65976449     0.44000
C1983       C  0.07831784  0.69837643  0.69664560     0.05200
O1984       O  0.05515903  0.70668040  0.62508295    -0.57400
H1985       H  0.04187255  0.67869732  0.58250745     0.18100
O1986       O  0.06438053  0.63295111  0.67163601    -0.64200
H1987       H  0.07783941  0.66140634  0.71407063     0.16600
C1988       C  0.07187438  0.70656393  0.73547866     0.28800
C1989       C  0.08098983  0.72212835  0.75255271    -0.25100
C1990       C  0.09667407  0.72956413  0.73140200    -0.24300
C1991       C  0.10323493  0.72093087  0.69287163     0.40300
C1992       C  0.09409128  0.70549988  0.67600965    -0.26800
O1993       O  0.05628608  0.69993617  0.75588562    -0.58700
H1994       H  0.07573787  0.72840920  0.78225823     0.15900
O1995       O  0.11831349  0.72768302  0.67063794    -0.60100
H1996       H  0.09902127  0.69936158  0.64580689     0.14400
H1997       H  0.07629387  0.62918750  0.65799439     0.46200
H1998       H  0.06087124  0.69066590  0.77715316     0.41600
H1999       H  0.11314449  0.73645967  0.64894262     0.45000
H2000       H  0.04493349  0.71145586  0.64368347     0.36500
C2001       C  0.09774505  0.86580894  0.86113543    -0.27700
C2002       C  0.08922123  0.86103008  0.90081832     0.01900
C2003       C  0.09317965  0.84374885  0.91989636     0.30000
C2004       C  0.10414090  0.83086425  0.89744183    -0.19500
C2005       C  0.11160210  0.83508099  0.85632729    -0.28900
C2006       C  0.10902745  0.85296538  0.83897722     0.44000
C2007       C  0.07403358  0.87252773  0.91900524     0.05200
O2008       O  0.08467002  0.83856555  0.95810825    -0.57400
H2009       H  0.10560061  0.81700427  0.91060793     0.18100
O2010       O  0.11618512  0.85742989  0.79877930    -0.64200
H2011       H  0.09476064  0.87905917  0.84611691     0.16600
C2012       C  0.07593957  0.88161791  0.95927486     0.28800
C2013       C  0.06025843  0.88882619  0.98052176    -0.25100
C2014       C  0.04242012  0.88672637  0.96253733    -0.24300
C2015       C  0.04082692  0.87889989  0.92038716     0.40300
C2016       C  0.05656511  0.87189175  0.89906685    -0.26800
O2017       O  0.09299829  0.88295893  0.97869537    -0.58700
H2018       H  0.06199207  0.89495820  0.01253532     0.15900
O2019       O  0.02386087  0.87687627  0.90085992    -0.60100
H2020       H  0.05494101  0.86487962  0.86801351     0.14400
H2021       H  0.10563582  0.85648243  0.77825467     0.46200
H2022       H  0.09300096  0.87345415  0.00205426     0.41600
H2023       H  0.02142294  0.88890419  0.88633954     0.45000
H2024       H  0.09446605  0.83927084  0.98068033     0.36500
C2025       C  0.21830703  0.77161157  0.81164574    -0.27700
C2026       C  0.22769222  0.77527836  0.77233531     0.01900
C2027       C  0.21836057  0.78504712  0.73915045     0.30000
C2028       C  0.19989515  0.79065403  0.74533212    -0.19500
C2029       C  0.19027796  0.78642434  0.78405326    -0.28900
C2030       C  0.19974776  0.77693156  0.81752132     0.44000
C2031       C  0.24735393  0.76929659  0.76710381     0.05200
O2032       O  0.22672914  0.78792402  0.69939187    -0.57400
H2033       H  0.19273848  0.79731192  0.71853277     0.18100
O2034       O  0.19095575  0.77273312  0.85606510    -0.64200
H2035       H  0.22535628  0.76441589  0.83782082     0.16600
C2036       C  0.26120532  0.78229534  0.75668267     0.28800
C2037       C  0.27980123  0.77700700  0.75644689    -0.25100
C2038       C  0.28520122  0.75894447  0.76787102    -0.24300
C2039       C  0.27142869  0.74559237  0.77605031     0.40300
C2040       C  0.25261786  0.75084074  0.77581445    -0.26800
O2041       O  0.25687734  0.80055450  0.74967131    -0.58700
H2042       H  0.29021161  0.78750018  0.75004139     0.15900
O2043       O  0.27619226  0.72792534  0.78799168    -0.60100
H2044       H  0.24214610  0.74064352  0.78393254     0.14400
H2045       H  0.18781565  0.75938527  0.85398294     0.46200
H2046       H  0.25701856  0.80639964  0.77898380     0.41600
H2047       H  0.27618485  0.72070709  0.76043528     0.45000
H2048       H  0.22770155  0.80156066  0.69612557     0.36500
C2049       C  0.51825546  0.33582658  0.10227309    -0.27700
C2050       C  0.53573782  0.34431499  0.09978158     0.01900
C2051       C  0.53819992  0.35987175  0.07287647     0.30000
C2052       C  0.52317728  0.36709025  0.05001251    -0.19500
C2053       C  0.50546098  0.35910528  0.05354516    -0.28900
C2054       C  0.50311801  0.34314448  0.07955441     0.44000
C2055       C  0.55144042  0.33672259  0.12480444     0.05200
O2056       O  0.55542032  0.36767147  0.06750313    -0.57400
H2057       H  0.52546731  0.37918863  0.02979253     0.18100
O2058       O  0.48618730  0.33462759  0.08320971    -0.64200
H2059       H  0.51627097  0.32369216  0.12256373     0.16600
C2060       C  0.56171272  0.34802107  0.15339632     0.28800
C2061       C  0.57712315  0.34080018  0.17492798    -0.25100
C2062       C  0.58206221  0.32213954  0.16976627    -0.24300
C2063       C  0.57143983  0.31067389  0.14223671     0.40300
C2064       C  0.55635594  0.31806115  0.11963543    -0.26800
O2065       O  0.55659171  0.36603272  0.16115271    -0.58700
H2066       H  0.58483706  0.34965453  0.19693284     0.15900
O2067       O  0.57605420  0.29240979  0.13611480    -0.60100
H2068       H  0.54855788  0.30923576  0.09774106     0.14400
H2069       H  0.48035908  0.34009140  0.10962958     0.46200
H2070       H  0.54747625  0.36539597  0.18542513     0.41600
H2071       H  0.56754180  0.28535313  0.15540983     0.45000
H2072       H  0.55454915  0.38022333  0.08056879     0.36500
C2073       C  0.48545262  0.40201149  0.21679934    -0.27700
C2074       C  0.47122217  0.40871395  0.24361594     0.01900
C2075       C  0.45575211  0.41745723  0.22508045     0.30000
C2076       C  0.45420705  0.41861089  0.17980719    -0.19500
C2077       C  0.46793010  0.41096441  0.15252712    -0.28900
C2078       C  0.48392032  0.40299364  0.17150690     0.44000
C2079       C  0.47190508  0.40520419  0.29069661     0.05200
O2080       O  0.44171072  0.42419326  0.25093302    -0.57400
H2081       H  0.44186999  0.42486629  0.16612846     0.18100
O2082       O  0.49789290  0.39563816  0.14634766    -0.64200
H2083       H  0.49750831  0.39543379  0.23106771     0.16600
C2084       C  0.47147012  0.38695121  0.30654957     0.28800
C2085       C  0.47145942  0.38375620  0.35140998    -0.25100
C2086       C  0.47199680  0.39862502  0.38091560    -0.24300
C2087       C  0.47254803  0.41695412  0.36480100     0.40300
C2088       C  0.47246714  0.42010120  0.31986342    -0.26800
O2089       O  0.47041355  0.37220305  0.27837733    -0.58700
H2090       H  0.47105201  0.36959458  0.36307714     0.15900
O2091       O  0.47407200  0.43182905  0.39247423    -0.60100
H2092       H  0.47299481  0.43418590  0.30769027     0.14400
H2093       H  0.49513288  0.38220030  0.14435826     0.46200
H2094       H  0.48327017  0.36742359  0.27589646     0.41600
H2095       H  0.46125633  0.43658753  0.39612033     0.45000
H2096       H  0.43324552  0.41355171  0.25564518     0.36500
C2097       C  0.47365869  0.38523769  0.71858104    -0.27700
C2098       C  0.47276636  0.40138622  0.74405742     0.01900
C2099       C  0.47136706  0.41881183  0.72370068     0.30000
C2100       C  0.47155373  0.41990289  0.67834266    -0.19500
C2101       C  0.47238289  0.40372811  0.65324225    -0.28900
C2102       C  0.47315604  0.38631234  0.67332655     0.44000
C2103       C  0.47344068  0.39973734  0.79173868     0.05200
O2104       O  0.47006461  0.43480208  0.74774509    -0.57400
H2105       H  0.47126053  0.43336087  0.66267776     0.18100
O2106       O  0.47423460  0.37038061  0.64891748    -0.64200
H2107       H  0.47517567  0.37177325  0.73374529     0.16600
C2108       C  0.46194796  0.38692791  0.81327075     0.28800
C2109       C  0.46333916  0.38482741  0.85814316    -0.25100
C2110       C  0.47554445  0.39584016  0.88226781    -0.24300
C2111       C  0.48684329  0.40888795  0.86112676     0.40300
C2112       C  0.48596672  0.41056883  0.81581560    -0.26800
O2113       O  0.44866014  0.37715646  0.79097688    -0.58700
H2114       H  0.45436870  0.37494275  0.87431619     0.15900
O2115       O  0.49879017  0.41988635  0.88430793    -0.60100
H2116       H  0.49511085  0.42025953  0.79946945     0.14400
H2117       H  0.48754612  0.36696163  0.64853788     0.46200
H2118       H  0.45267215  0.36401713  0.79205901     0.41600
H2119       H  0.51040445  0.41259555  0.88659509     0.45000
H2120       H  0.45672000  0.43604560  0.75510052     0.36500
C2121       C  0.39854283  0.33920625  0.14543501    -0.27700
C2122       C  0.40721661  0.32180174  0.14657390     0.01900
C2123       C  0.42407902  0.31910512  0.12432797     0.30000
C2124       C  0.43171175  0.33353983  0.09993385    -0.19500
C2125       C  0.42290360  0.35084637  0.09807442    -0.28900
C2126       C  0.40641807  0.35380112  0.12174079     0.44000
C2127       C  0.39762496  0.30596329  0.16674070     0.05200
O2128       O  0.43242956  0.30202162  0.12361408    -0.57400
H2129       H  0.44438191  0.33109659  0.08167256     0.18100
O2130       O  0.39718858  0.37037719  0.11911753    -0.64200
H2131       H  0.38540294  0.34129595  0.16199336     0.16600
C2132       C  0.40556198  0.29604035  0.20142757     0.28800
C2133       C  0.39688067  0.28004576  0.21710716    -0.25100
C2134       C  0.38018569  0.27376196  0.19866835    -0.24300
C2135       C  0.37218178  0.28400521  0.16418154     0.40300
C2136       C  0.38084486  0.30001175  0.14882920    -0.26800
O2137       O  0.42187130  0.30177782  0.21990994    -0.58700
H2138       H  0.40326559  0.27256372  0.24376347     0.15900
O2139       O  0.35602563  0.27844996  0.14472756    -0.60100
H2140       H  0.37471441  0.30751737  0.12184307     0.14400
H2141       H  0.40137409  0.37757956  0.14483640     0.46200
H2142       H  0.41821152  0.31108190  0.24217002     0.41600
H2143       H  0.35997522  0.27087665  0.11930108     0.45000
H2144       H  0.44321905  0.30311578  0.14342951     0.36500
C2145       C  0.41891895  0.66758168  0.94157171    -0.27700
C2146       C  0.42652558  0.68452776  0.92836381     0.01900
C2147       C  0.44476604  0.68899117  0.94041976     0.30000
C2148       C  0.45518065  0.67646352  0.96535215    -0.19500
C2149       C  0.44770819  0.65926913  0.97814654    -0.28900
C2150       C  0.42934276  0.65492166  0.96578619     0.44000
C2151       C  0.41494113  0.69738953  0.90261946     0.05200
O2152       O  0.45228264  0.70577780  0.92912429    -0.57400
H2153       H  0.46922326  0.68016990  0.97423378     0.18100
O2154       O  0.42142032  0.63828038  0.97670071    -0.64200
H2155       H  0.40486278  0.66402072  0.93240198     0.16600
C2156       C  0.41874771  0.70098614  0.85835290     0.28800
C2157       C  0.40619665  0.71140339  0.83346652    -0.25100
C2158       C  0.38979205  0.71842575  0.85228309    -0.24300
C2159       C  0.38659230  0.71550753  0.89732109     0.40300
C2160       C  0.39898555  0.70490712  0.92183154    -0.26800
O2161       O  0.43404706  0.69336799  0.83854084    -0.58700
H2162       H  0.40905486  0.71347984  0.79906964     0.15900
O2163       O  0.37125203  0.72268904  0.91777110    -0.60100
H2164       H  0.39599590  0.70230724  0.95598666     0.14400
H2165       H  0.42389871  0.63002450  0.95143482     0.46200
H2166       H  0.44286778  0.70377624  0.83468678     0.41600
H2167       H  0.37503367  0.73520115  0.92773649     0.45000
H2168       H  0.46145204  0.70299660  0.90581643     0.36500
C2169       C  0.49275921  0.60537057  0.79817130    -0.27700
C2170       C  0.47605297  0.61052738  0.77853608     0.01900
C2171       C  0.46019685  0.61336177  0.80470439     0.30000
C2172       C  0.46128255  0.61113459  0.85005181    -0.19500
C2173       C  0.47805658  0.60605185  0.86987502    -0.28900
C2174       C  0.49388922  0.60314996  0.84337670     0.44000
C2175       C  0.47542906  0.61301662  0.73069179     0.05200
O2176       O  0.44345982  0.61761480  0.78599806    -0.57400
H2177       H  0.44894076  0.61332006  0.86967246     0.18100
O2178       O  0.51077177  0.59897733  0.86138114    -0.64200
H2179       H  0.50508230  0.60335021  0.77837234     0.16600
C2180       C  0.47010530  0.63006974  0.71248184     0.28800
C2181       C  0.46851464  0.63183972  0.66731169    -0.25100
C2182       C  0.47258525  0.61688431  0.63948443    -0.24300
C2183       C  0.47891774  0.60010844  0.65755077     0.40300
C2184       C  0.48024970  0.59825625  0.70296763    -0.26800
O2185       O  0.46622445  0.64503574  0.73858581    -0.58700
H2186       H  0.46379780  0.64491651  0.65397899     0.15900
O2187       O  0.48248120  0.58506151  0.63147172    -0.60100
H2188       H  0.48451180  0.58509437  0.71666141     0.14400
H2189       H  0.51197713  0.58533434  0.85873759     0.46200
H2190       H  0.47838181  0.65098849  0.74410109     0.41600
H2191       H  0.49600349  0.58550968  0.62560471     0.45000
H2192       H  0.44078131  0.63057717  0.79476294     0.36500
C2193       C  0.47119790  0.61038366  0.22064905    -0.27700
C2194       C  0.46407967  0.59291901  0.23134271     0.01900
C2195       C  0.45687911  0.58159399  0.19808732     0.30000
C2196       C  0.45709480  0.58774341  0.15469545    -0.19500
C2197       C  0.46426691  0.60529047  0.14380348    -0.28900
C2198       C  0.47135715  0.61661942  0.17750686     0.44000
C2199       C  0.46220249  0.58798096  0.27796164     0.05200
O2200       O  0.44947971  0.56458008  0.20774390    -0.57400
H2201       H  0.45171946  0.57868990  0.12952282     0.18100
O2202       O  0.47839338  0.63389126  0.16889700    -0.64200
H2203       H  0.47627846  0.61946961  0.24611928     0.16600
C2204       C  0.47761112  0.58802456  0.30616064     0.28800
C2205       C  0.47489868  0.58794285  0.35157836    -0.25100
C2206       C  0.45689255  0.58824964  0.36905676    -0.24300
C2207       C  0.44160135  0.58651442  0.34061055     0.40300
C2208       C  0.44436579  0.58626356  0.29550866    -0.26800
O2209       O  0.49528383  0.58872861  0.28950764    -0.58700
H2210       H  0.48679937  0.58909276  0.37289571     0.15900
O2211       O  0.42380551  0.58576727  0.35660170    -0.60100
H2212       H  0.43240222  0.58614653  0.27419315     0.14400
H2213       H  0.49203427  0.63224043  0.16786565     0.46200
H2214       H  0.49947240  0.60167130  0.29401583     0.41600
H2215       H  0.41846775  0.59822836  0.35122179     0.45000
H2216       H  0.46004983  0.55581330  0.20605383     0.36500
C2217       C  0.57515992  0.68525052  0.84810210    -0.27700
C2218       C  0.56191828  0.69219252  0.87731175     0.01900
C2219       C  0.56091472  0.71139321  0.88500925     0.30000
C2220       C  0.57342519  0.72335050  0.86428345    -0.19500
C2221       C  0.58711246  0.71634523  0.83599811    -0.28900
C2222       C  0.58774405  0.69709187  0.82764706     0.44000
C2223       C  0.55015927  0.67905100  0.90167563     0.05200
O2224       O  0.54799708  0.71852610  0.91337757    -0.57400
H2225       H  0.57274456  0.73804616  0.87133876     0.18100
O2226       O  0.60053337  0.68965657  0.79934829    -0.64200
H2227       H  0.57615338  0.67047950  0.84218248     0.16600
C2228       C  0.53888674  0.66617032  0.87976217     0.28800
C2229       C  0.52877725  0.65310297  0.90365422    -0.25100
C2230       C  0.52983848  0.65263881  0.94940220    -0.24300
C2231       C  0.54122249  0.66550551  0.97124536     0.40300
C2232       C  0.55128791  0.67855517  0.94731929    -0.26800
O2233       O  0.53728320  0.66663523  0.83514682    -0.58700
H2234       H  0.51994023  0.64344565  0.88636733     0.15900
O2235       O  0.54332251  0.66486550  0.01573191    -0.60100
H2236       H  0.56033742  0.68807648  0.96440275     0.14400
H2237       H  0.61051325  0.68462656  0.81814039     0.46200
H2238       H  0.54457773  0.65590464  0.82436205     0.41600
H2239       H  0.53504178  0.67468600  0.02735711     0.45000
H2240       H  0.53715314  0.72167056  0.89499562     0.36500
C2241       C  0.46658695  0.52424716  0.96411802    -0.27700
C2242       C  0.46858247  0.51274581  0.00059337     0.01900
C2243       C  0.47848919  0.51943750  0.03716889     0.30000
C2244       C  0.48520219  0.53777817  0.03768104    -0.19500
C2245       C  0.48213140  0.54952073  0.00201983    -0.28900
C2246       C  0.47330573  0.54236084  0.96452376     0.44000
C2247       C  0.46056661  0.49373699  0.99917974     0.05200
O2248       O  0.48200475  0.50802359  0.07199499    -0.57400
H2249       H  0.49199703  0.54303860  0.06663307     0.18100
O2250       O  0.47045830  0.55329924  0.92851977    -0.64200
H2251       H  0.45931010  0.51932372  0.93547491     0.16600
C2252       C  0.44890732  0.48701841  0.03271748     0.28800
C2253       C  0.44317812  0.46845705  0.03251632    -0.25100
C2254       C  0.44852569  0.45653273  0.99857626    -0.24300
C2255       C  0.45862663  0.46367823  0.96305232     0.40300
C2256       C  0.46457797  0.48212781  0.96349064    -0.26800
O2257       O  0.44358871  0.49825621  0.06662624    -0.58700
H2258       H  0.43570286  0.46303782  0.06048154     0.15900
O2259       O  0.46424738  0.45224321  0.92974429    -0.60100
H2260       H  0.47319390  0.48709018  0.93691733     0.14400
H2261       H  0.48232075  0.55294132  0.91206052     0.46200
H2262       H  0.43226276  0.50465625  0.05625884     0.41600
H2263       H  0.45390027  0.45237529  0.90851485     0.45000
H2264       H  0.47502814  0.51338672  0.09695343     0.36500
C2265       C  0.65183992  0.75021840  0.10725136    -0.27700
C2266       C  0.63712889  0.75496804  0.07965743     0.01900
C2267       C  0.61988438  0.75995524  0.09780725     0.30000
C2268       C  0.61724544  0.75909556  0.14290920    -0.19500
C2269       C  0.63170168  0.75343092  0.17048536    -0.28900
C2270       C  0.64925267  0.74940398  0.15238242     0.44000
C2271       C  0.63954924  0.75329000  0.03201850     0.05200
O2272       O  0.60534282  0.76501948  0.07162763    -0.57400
H2273       H  0.60366408  0.76226502  0.15620747     0.18100
O2274       O  0.66363781  0.74350342  0.17807216    -0.64200
H2275       H  0.66512055  0.74616790  0.09362243     0.16600
C2276       C  0.65390372  0.76267522  0.01024622     0.28800
C2277       C  0.65607381  0.76057181  0.96518017    -0.25100
C2278       C  0.64413835  0.74902986  0.94120295    -0.24300
C2279       C  0.62986560  0.73946023  0.96333933     0.40300
C2280       C  0.62769319  0.74165122  0.00837247    -0.26800
O2281       O  0.66528758  0.77461041  0.03245639    -0.58700
H2282       H  0.66698286  0.76826517  0.94891633     0.15900
O2283       O  0.61738413  0.72867707  0.94116024    -0.60100
H2284       H  0.61667976  0.73421674  0.02494790     0.14400
H2285       H  0.66240306  0.72982509  0.17932720     0.46200
H2286       H  0.67729138  0.76801264  0.03522173     0.41600
H2287       H  0.62228631  0.71587037  0.94321639     0.45000
H2288       H  0.60741149  0.77830552  0.06500145     0.36500
C2289       C  0.63998528  0.71405141  0.50917673    -0.27700
C2290       C  0.64022780  0.73106317  0.53090559     0.01900
C2291       C  0.64002378  0.74764776  0.50689881     0.30000
C2292       C  0.63928364  0.74705179  0.46128223    -0.19500
C2293       C  0.63869663  0.72998693  0.43928867    -0.28900
C2294       C  0.63925051  0.71338299  0.46369197     0.44000
C2295       C  0.63841365  0.73126488  0.57861901     0.05200
O2296       O  0.64055863  0.76444417  0.52784235    -0.57400
H2297       H  0.63907247  0.75992931  0.44314163     0.18100
O2298       O  0.63791785  0.69643751  0.44363408    -0.64200
H2299       H  0.63970868  0.70124958  0.52764462     0.16600
C2300       C  0.62114906  0.73520054  0.59759226     0.28800
C2301       C  0.61923692  0.73519216  0.64278061    -0.25100
C2302       C  0.63444965  0.73134453  0.66997997    -0.24300
C2303       C  0.65173922  0.72697929  0.65071347     0.40300
C2304       C  0.65357456  0.72687198  0.60515153    -0.26800
O2305       O  0.60610331  0.73937430  0.57212495    -0.58700
H2306       H  0.60580796  0.73868869  0.65644895     0.15900
O2307       O  0.66706283  0.72356211  0.67584269    -0.60100
H2308       H  0.66689088  0.72366364  0.59049184     0.14400
H2309       H  0.65081187  0.69170191  0.44193225     0.46200
H2310       H  0.60054625  0.72724540  0.56443526     0.41600
H2311       H  0.66708772  0.70997332  0.68056454     0.45000
H2312       H  0.62743949  0.76844171  0.53032020     0.36500
C2313       C  0.55738426  0.78358729  0.36880735    -0.27700
C2314       C  0.56322053  0.80190863  0.36222889     0.01900
C2315       C  0.57812495  0.80560786  0.33399639     0.30000
C2316       C  0.58804524  0.79093812  0.31577876    -0.19500
C2317       C  0.58323228  0.77249808  0.32519469    -0.28900
C2318       C  0.56725370  0.76885583  0.35036085     0.44000
C2319       C  0.55634297  0.81648343  0.39151855     0.05200
O2320       O  0.58429503  0.82339125  0.32777904    -0.57400
H2321       H  0.60009983  0.79404372  0.29587323     0.18100
O2322       O  0.56183275  0.75104649  0.35938095    -0.64200
H2323       H  0.54587051  0.78068445  0.39058276     0.16600
C2324       C  0.54771525  0.83257718  0.37567616     0.28800
C2325       C  0.54302896  0.84679731  0.40468049    -0.25100
C2326       C  0.54672923  0.84501894  0.44953567    -0.24300
C2327       C  0.55521416  0.82876648  0.46520749     0.40300
C2328       C  0.56000209  0.81470574  0.43617623    -0.26800
O2329       O  0.54394701  0.83455954  0.33206860    -0.58700
H2330       H  0.53624489  0.85909640  0.39219754     0.15900
O2331       O  0.55965731  0.82683119  0.50849307    -0.60100
H2332       H  0.56702039  0.80249765  0.44845175     0.14400
H2333       H  0.56803340  0.74782793  0.38721940     0.46200
H2334       H  0.53177677  0.82845585  0.32774080     0.41600
H2335       H  0.54981329  0.81882329  0.52100155     0.45000
H2336       H  0.57965777  0.82701883  0.29856534     0.36500
C2337       C  0.58945889  0.66699713  0.14137981    -0.27700
C2338       C  0.58494642  0.65012912  0.16153047     0.01900
C2339       C  0.59347833  0.64561684  0.20140125     0.30000
C2340       C  0.60546078  0.65832745  0.22173391    -0.19500
C2341       C  0.60884170  0.67589564  0.20339967    -0.28900
C2342       C  0.60110909  0.67988409  0.16201015     0.44000
C2343       C  0.57037316  0.63807381  0.14195458     0.05200
O2344       O  0.59005135  0.62883855  0.22083729    -0.57400
H2345       H  0.61110962  0.65484302  0.25340731     0.18100
O2346       O  0.60438895  0.69656762  0.14193896    -0.64200
H2347       H  0.58315477  0.67061799  0.11047001     0.16600
C2348       C  0.55328173  0.63530747  0.16339006     0.28800
C2349       C  0.53878256  0.62600075  0.14212325    -0.25100
C2350       C  0.54087785  0.61928320  0.09920797    -0.24300
C2351       C  0.55840505  0.62124047  0.07873794     0.40300
C2352       C  0.57283946  0.63069183  0.09994010    -0.26800
O2353       O  0.55004807  0.64317540  0.20350380    -0.58700
H2354       H  0.52549698  0.62497832  0.15851606     0.15900
O2355       O  0.56117471  0.61543804  0.03658061    -0.60100
H2356       H  0.58584744  0.63282510  0.08286673     0.14400
H2357       H  0.59297696  0.70399247  0.14669940     0.46200
H2358       H  0.54903411  0.63265003  0.22416275     0.41600
H2359       H  0.56620365  0.60269916  0.03913312     0.45000
H2360       H  0.58260535  0.63168407  0.24729356     0.36500
C2361       C  0.52095829  0.67399427  0.45587679    -0.27700
C2362       C  0.53497065  0.66399938  0.43435547     0.01900
C2363       C  0.53354529  0.64461786  0.43125680     0.30000
C2364       C  0.51812497  0.63552466  0.44867316    -0.19500
C2365       C  0.50384182  0.64546340  0.46948281    -0.28900
C2366       C  0.50551914  0.66488191  0.47362879     0.44000
C2367       C  0.55042777  0.67381573  0.41247788     0.05200
O2368       O  0.54692947  0.63446614  0.41011846    -0.57400
H2369       H  0.51727466  0.62060504  0.44535512     0.18100
O2370       O  0.49180445  0.67519261  0.49307747    -0.64200
H2371       H  0.52189251  0.68893532  0.45844037     0.16600
C2372       C  0.54687180  0.68640994  0.37854280     0.28800
C2373       C  0.56158165  0.69389191  0.35454918    -0.25100
C2374       C  0.58006451  0.68924705  0.36418928    -0.24300
C2375       C  0.58362767  0.67714692  0.39937579     0.40300
C2376       C  0.56884893  0.66950874  0.42309444    -0.26800
O2377       O  0.52901252  0.69067925  0.36698573    -0.58700
H2378       H  0.55844714  0.70334108  0.32811003     0.15900
O2379       O  0.60141535  0.67238482  0.41039499    -0.60100
H2380       H  0.57175205  0.65990042  0.44936636     0.14400
H2381       H  0.49594632  0.67701084  0.52362178     0.46200
H2382       H  0.52654433  0.70298856  0.38019519     0.41600
H2383       H  0.60420404  0.66109527  0.39309976     0.45000
H2384       H  0.54298805  0.63408278  0.37914200     0.36500
C2385       C  0.91944296  0.70293521  0.18826977    -0.27700
C2386       C  0.91673044  0.68375160  0.19175091     0.01900
C2387       C  0.90321427  0.67702059  0.22094628     0.30000
C2388       C  0.89236519  0.68942376  0.24530015    -0.19500
C2389       C  0.89475041  0.70870541  0.24121724    -0.28900
C2390       C  0.90870127  0.71537042  0.21276951     0.44000
C2391       C  0.92795693  0.67093384  0.16443440     0.05200
O2392       O  0.90021344  0.65834462  0.22519185    -0.57400
H2393       H  0.88181754  0.68388637  0.26690725     0.18100
O2394       O  0.91150219  0.73400927  0.20717973    -0.64200
H2395       H  0.92993068  0.70831669  0.16627420     0.16600
C2396       C  0.92783150  0.67226123  0.11855870     0.28800
C2397       C  0.93874742  0.66023022  0.09333135    -0.25100
C2398       C  0.94995988  0.64673469  0.11316232    -0.24300
C2399       C  0.95014411  0.64552234  0.15914689     0.40300
C2400       C  0.93911970  0.65746444  0.18433118    -0.26800
O2401       O  0.91651353  0.68480136  0.09808344    -0.58700
H2402       H  0.93825774  0.66132838  0.05806897     0.15900
O2403       O  0.96135871  0.63302626  0.17993675    -0.60100
H2404       H  0.93954311  0.65643369  0.21960745     0.14400
H2405       H  0.92142256  0.73731504  0.22812081     0.46200
H2406       H  0.92480642  0.69500383  0.08863414     0.41600
H2407       H  0.97340696  0.63945094  0.18359745     0.45000
H2408       H  0.89067426  0.65530615  0.20307777     0.36500
C2409       C  0.83197182  0.74324840  0.47849376    -0.27700
C2410       C  0.84677072  0.73961060  0.50673231     0.01900
C2411       C  0.86341877  0.73228899  0.48983616     0.30000
C2412       C  0.86517201  0.72901055  0.44498379    -0.19500
C2413       C  0.85036946  0.73267404  0.41671064    -0.28900
C2414       C  0.83363810  0.73980502  0.43380335     0.44000
C2415       C  0.84414444  0.74212385  0.55412957     0.05200
O2416       O  0.87767479  0.72750553  0.51718360    -0.57400
H2417       H  0.87813040  0.72360536  0.43226080     0.18100
O2418       O  0.81926858  0.74458898  0.40680453    -0.64200
H2419       H  0.81910642  0.74889581  0.49117736     0.16600
C2420       C  0.85630428  0.75306478  0.57912446     0.28800
C2421       C  0.85478932  0.75313674  0.62465481    -0.25100
C2422       C  0.84113342  0.74247296  0.64555913    -0.24300
C2423       C  0.82804456  0.73278886  0.62019720     0.40300
C2424       C  0.82966119  0.73263337  0.57485822    -0.26800
O2425       O  0.87005173  0.76322264  0.55947266    -0.58700
H2426       H  0.86488492  0.76076854  0.64363516     0.15900
O2427       O  0.81404150  0.72282808  0.63943419    -0.60100
H2428       H  0.82001468  0.72442653  0.55590829     0.14400
H2429       H  0.81072027  0.73383612  0.40737752     0.46200
H2430       H  0.86432942  0.77540849  0.55304292     0.41600
H2431       H  0.80339903  0.73150643  0.64113561     0.45000
H2432       H  0.88763835  0.73665643  0.51142230     0.36500
C2433       C  0.85881644  0.74789361  0.99460803    -0.27700
C2434       C  0.84099558  0.74260960  0.00794377     0.01900
C2435       C  0.82670659  0.74128737  0.97706385     0.30000
C2436       C  0.83054828  0.74451559  0.93305017    -0.19500
C2437       C  0.84863941  0.74885281  0.91919207    -0.28900
C2438       C  0.86275425  0.75092153  0.95055965     0.44000
C2439       C  0.83739516  0.73939024  0.05455657     0.05200
O2440       O  0.80907679  0.73641398  0.98947035    -0.57400
H2441       H  0.81950129  0.74276321  0.90954752     0.18100
O2442       O  0.88038241  0.75600850  0.93861076    -0.64200
H2443       H  0.86974557  0.74959339  0.01846932     0.16600
C2444       C  0.84758786  0.72615858  0.07813966     0.28800
C2445       C  0.84572554  0.72517777  0.12353030    -0.25100
C2446       C  0.83387134  0.73743780  0.14577598    -0.24300
C2447       C  0.82270346  0.74978335  0.12139245     0.40300
C2448       C  0.82464227  0.75072462  0.07623069    -0.26800
O2449       O  0.85945527  0.71425675  0.05702137    -0.58700
H2450       H  0.85424523  0.71543284  0.14138761     0.15900
O2451       O  0.81056113  0.76175620  0.14135333    -0.60100
H2452       H  0.81672303  0.76093323  0.05824746     0.14400
H2453       H  0.88774225  0.74439650  0.93912729     0.46200
H2454       H  0.87206793  0.71917536  0.06255966     0.41600
H2455       H  0.79869224  0.75487524  0.14334182     0.45000
H2456       H  0.80884378  0.72268675  0.98823615     0.36500
C2457       C  0.89261183  0.80410908  0.12880509    -0.27700
C2458       C  0.90899727  0.81157219  0.14604134     0.01900
C2459       C  0.91355130  0.80816939  0.18981520     0.30000
C2460       C  0.90161231  0.79784436  0.21615840    -0.19500
C2461       C  0.88499035  0.79050989  0.19955484    -0.28900
C2462       C  0.88073856  0.79339553  0.15504801     0.44000
C2463       C  0.92087105  0.82395597  0.11966009     0.05200
O2464       O  0.92921192  0.81575869  0.20777184    -0.57400
H2465       H  0.90533190  0.79587113  0.25007558     0.18100
O2466       O  0.86502357  0.78601273  0.13692281    -0.64200
H2467       H  0.88902915  0.80663693  0.09500666     0.16600
C2468       C  0.93916889  0.81892383  0.10900835     0.28800
C2469       C  0.95125713  0.83201786  0.09093774    -0.25100
C2470       C  0.94534932  0.85028013  0.08292479    -0.24300
C2471       C  0.92664378  0.85498205  0.09174683     0.40300
C2472       C  0.91462609  0.84184887  0.11001186    -0.26800
O2473       O  0.94555446  0.80141707  0.11769632    -0.58700
H2474       H  0.96541658  0.82791652  0.08401378     0.15900
O2475       O  0.92015185  0.87259974  0.08489649    -0.60100
H2476       H  0.90059289  0.84589811  0.11848142     0.14400
H2477       H  0.86861461  0.77338889  0.12724189     0.46200
H2478       H  0.94254747  0.79405215  0.09131679     0.41600
H2479       H  0.91434010  0.87226271  0.05561147     0.45000
H2480       H  0.93843551  0.80556747  0.20829677     0.36500
C2481       C  0.75377682  0.75330702  0.30647095    -0.27700
C2482       C  0.74739434  0.73503046  0.30000021     0.01900
C2483       C  0.76048168  0.72078836  0.29533496     0.30000
C2484       C  0.77941244  0.72486480  0.29525647    -0.19500
C2485       C  0.78601153  0.74320186  0.29964777    -0.28900
C2486       C  0.77291212  0.75744087  0.30645824     0.44000
C2487       C  0.72716840  0.73063495  0.29948457     0.05200
O2488       O  0.75490322  0.70273527  0.29058987    -0.57400
H2489       H  0.78898327  0.71344289  0.29079394     0.18100
O2490       O  0.77851878  0.77545423  0.31145140    -0.64200
H2491       H  0.74387618  0.76445870  0.31069728     0.16600
C2492       C  0.71602790  0.73461552  0.33596162     0.28800
C2493       C  0.69714387  0.73023557  0.33552090    -0.25100
C2494       C  0.68871728  0.72208392  0.29874989    -0.24300
C2495       C  0.69989360  0.71759651  0.26253518     0.40300
C2496       C  0.71900485  0.72182117  0.26312383    -0.26800
O2497       O  0.72356660  0.74245668  0.37265364    -0.58700
H2498       H  0.68884361  0.73378316  0.36390968     0.15900
O2499       O  0.69213975  0.71031885  0.22552151    -0.60100
H2500       H  0.72740616  0.71861935  0.23471385     0.14400
H2501       H  0.78061622  0.77697930  0.34323340     0.46200
H2502       H  0.72009206  0.75574029  0.37133554     0.41600
H2503       H  0.69359912  0.69671837  0.22844632     0.45000
H2504       H  0.75361627  0.69791349  0.32076090     0.36500
C2505       C  0.34714627  0.23142162  0.53417748    -0.27700
C2506       C  0.34216790  0.24708525  0.50964196     0.01900
C2507       C  0.33314575  0.26191654  0.53063820     0.30000
C2508       C  0.32946787  0.26104366  0.57540865    -0.19500
C2509       C  0.33499546  0.24564595  0.60040110    -0.28900
C2510       C  0.34377732  0.23065894  0.57915519     0.44000
C2511       C  0.34630579  0.24763215  0.46218620     0.05200
O2512       O  0.32830955  0.27756528  0.50797773    -0.57400
H2513       H  0.32286630  0.27285311  0.59082253     0.18100
O2514       O  0.34953323  0.21537718  0.60198998    -0.64200
H2515       H  0.35372861  0.21969061  0.51840018     0.16600
C2516       C  0.36413352  0.24326790  0.44632854     0.28800
C2517       C  0.36721799  0.24174261  0.40138209    -0.25100
C2518       C  0.35277554  0.24471533  0.37156252    -0.24300
C2519       C  0.33532164  0.25046377  0.38727336     0.40300
C2520       C  0.33212504  0.25164109  0.43230101    -0.26800
O2521       O  0.37863534  0.24062735  0.47457231    -0.58700
H2522       H  0.38085783  0.23769275  0.38986314     0.15900
O2523       O  0.32089196  0.25350948  0.35918028    -0.60100
H2524       H  0.31830731  0.25496565  0.44388255     0.14400
H2525       H  0.33892341  0.20665609  0.60108567     0.46200
H2526       H  0.38152718  0.22720205  0.47318154     0.41600
H2527       H  0.32105880  0.26702268  0.35339707     0.45000
H2528       H  0.33951231  0.28552446  0.50840865     0.36500
C2529       C  0.34725966  0.23879993  0.95156087    -0.27700
C2530       C  0.33027517  0.23124090  0.96473066     0.01900
C2531       C  0.31759941  0.22521661  0.93304740     0.30000
C2532       C  0.32205132  0.22677703  0.88860465    -0.19500
C2533       C  0.33927184  0.23403658  0.87512953    -0.28900
C2534       C  0.35189044  0.24012781  0.90733608     0.44000
C2535       C  0.32693602  0.22824154  0.01175991     0.05200
O2536       O  0.30068049  0.21822572  0.94528859    -0.57400
H2537       H  0.31196140  0.22230100  0.86470164     0.18100
O2538       O  0.36862524  0.24783142  0.89615347    -0.64200
H2539       H  0.35717325  0.24334525  0.97582770     0.16600
C2540       C  0.32789091  0.21024841  0.02902190     0.28800
C2541       C  0.32853175  0.20767676  0.07415468    -0.25100
C2542       C  0.32816625  0.22289397  0.10279359    -0.24300
C2543       C  0.32561483  0.24082041  0.08555473     0.40300
C2544       C  0.32538295  0.24342678  0.04019166    -0.26800
O2545       O  0.32937759  0.19516058  0.00197156    -0.58700
H2546       H  0.33018907  0.19374645  0.08672298     0.15900
O2547       O  0.32484495  0.25598692  0.11244412    -0.60100
H2548       H  0.32469773  0.25735831  0.02714275     0.14400
H2549       H  0.37762873  0.23744807  0.89704267     0.46200
H2550       H  0.34286870  0.19351784  0.99689471     0.41600
H2551       H  0.31147145  0.25786587  0.11864038     0.45000
H2552       H  0.30174846  0.20461968  0.94155855     0.36500
C2553       C  0.41599455  0.20540461  0.66875717    -0.27700
C2554       C  0.41120610  0.18659372  0.66975680     0.01900
C2555       C  0.39534565  0.18091629  0.69277104     0.30000
C2556       C  0.38423704  0.19406922  0.71370397    -0.19500
C2557       C  0.38861767  0.21306515  0.71179325    -0.28900
C2558       C  0.40482707  0.21864338  0.68941962     0.44000
C2559       C  0.42219137  0.17312275  0.64442840     0.05200
O2560       O  0.39028248  0.16260367  0.69382970    -0.57400
H2561       H  0.37187099  0.18936362  0.73052669     0.18100
O2562       O  0.40974003  0.23696154  0.68675787    -0.64200
H2563       H  0.42825125  0.20986258  0.65110624     0.16600
C2564       C  0.42278158  0.17423689  0.59867737     0.28800
C2565       C  0.43310060  0.16136153  0.57481060    -0.25100
C2566       C  0.44308983  0.14728815  0.59599425    -0.24300
C2567       C  0.44242048  0.14616472  0.64201470     0.40300
C2568       C  0.43188700  0.15898045  0.66584253    -0.26800
O2569       O  0.41278699  0.18751161  0.57698642    -0.58700
H2570       H  0.43324114  0.16240885  0.53951874     0.15900
O2571       O  0.45218872  0.13284229  0.66409507    -0.60100
H2572       H  0.43148123  0.15805808  0.70114523     0.14400
H2573       H  0.40407366  0.24151024  0.65931425     0.46200
H2574       H  0.42180562  0.19747370  0.57017740     0.41600
H2575       H  0.46461142  0.13831434  0.66914056     0.45000
H2576       H  0.38249874  0.16074409  0.66755962     0.36500
C2577       C  0.35792153  0.34352085  0.82663707    -0.27700
C2578       C  0.36559295  0.34111868  0.86825356     0.01900
C2579       C  0.36415286  0.32374388  0.88877831     0.30000
C2580       C  0.35618556  0.30879470  0.86664058    -0.19500
C2581       C  0.34972885  0.31075365  0.82358755    -0.28900
C2582       C  0.34987765  0.32857146  0.80441446     0.44000
C2583       C  0.37739195  0.35575770  0.88761507     0.05200
O2584       O  0.37170692  0.32089169  0.92927447    -0.57400
H2585       H  0.35620162  0.29532720  0.88225691     0.18100
O2586       O  0.34379625  0.33124824  0.76252854    -0.64200
H2587       H  0.35900951  0.35682323  0.81046468     0.16600
C2588       C  0.39450971  0.36016739  0.86813923     0.28800
C2589       C  0.40738224  0.37094609  0.89081142    -0.25100
C2590       C  0.40359294  0.37743627  0.93327779    -0.24300
C2591       C  0.38573426  0.37442164  0.95101760     0.40300
C2592       C  0.37286716  0.36348772  0.92833270    -0.26800
O2593       O  0.39957179  0.35237229  0.82899568    -0.58700
H2594       H  0.42088408  0.37312865  0.87616877     0.15900
O2595       O  0.38128828  0.38052397  0.99213425    -0.60100
H2596       H  0.35969406  0.36021012  0.94358095     0.14400
H2597       H  0.33041140  0.33416544  0.76545078     0.46200
H2598       H  0.39708864  0.36204924  0.80680981     0.41600
H2599       H  0.37578749  0.39297660  0.98779151     0.45000
H2600       H  0.38477629  0.31728835  0.92368019     0.36500
C2601       C  0.39256304  0.30745869  0.59296558    -0.27700
C2602       C  0.40841756  0.31525390  0.61186643     0.01900
C2603       C  0.41129909  0.31342430  0.65701943     0.30000
C2604       C  0.39847608  0.30377435  0.68265666    -0.19500
C2605       C  0.38259035  0.29580567  0.66396739    -0.28900
C2606       C  0.37969483  0.29775521  0.61855382     0.44000
C2607       C  0.42149186  0.32606901  0.58478904     0.05200
O2608       O  0.42616145  0.32182210  0.67665603    -0.57400
H2609       H  0.40091288  0.30275117  0.71745528     0.18100
O2610       O  0.36467052  0.28982275  0.59856275    -0.64200
H2611       H  0.39020050  0.30886008  0.55820246     0.16600
C2612       C  0.44019771  0.32079551  0.58063622     0.28800
C2613       C  0.45277796  0.33238951  0.55900220    -0.25100
C2614       C  0.44692859  0.34928299  0.54083225    -0.24300
C2615       C  0.42789237  0.35405120  0.54334280     0.40300
C2616       C  0.41539137  0.34241269  0.56496731    -0.26800
O2617       O  0.44638429  0.30450918  0.59843215    -0.58700
H2618       H  0.46722215  0.32831691  0.55733424     0.15900
O2619       O  0.42134510  0.37026216  0.52582104    -0.60100
H2620       H  0.40098245  0.34653873  0.56775968     0.14400
H2621       H  0.35533876  0.29986909  0.59626829     0.46200
H2622       H  0.44360384  0.29488715  0.57628185     0.41600
H2623       H  0.42135916  0.37928497  0.55026889     0.45000
H2624       H  0.43495571  0.31165916  0.68337822     0.36500
C2625       C  0.15626599  0.21680734  0.95994875    -0.27700
C2626       C  0.15113864  0.23345111  0.97999327     0.01900
C2627       C  0.14734433  0.24915058  0.95427830     0.30000
C2628       C  0.14727886  0.24763171  0.90867011    -0.19500
C2629       C  0.15054104  0.23043322  0.88881569    -0.28900
C2630       C  0.15580342  0.21516086  0.91458733     0.44000
C2631       C  0.14726773  0.23339473  0.02714005     0.05200
O2632       O  0.14305890  0.26577730  0.97357643    -0.57400
H2633       H  0.14325295  0.25946824  0.88912263     0.18100
O2634       O  0.15987214  0.19839779  0.89563904    -0.64200
H2635       H  0.15936460  0.20471667  0.97958547     0.16600
C2636       C  0.12884370  0.23398796  0.04217352     0.28800
C2637       C  0.12510494  0.23339758  0.08686081    -0.25100
C2638       C  0.13957724  0.23198777  0.11726303    -0.24300
C2639       C  0.15806559  0.23073072  0.10183622     0.40300
C2640       C  0.16175110  0.23140737  0.05699639    -0.26800
O2641       O  0.11438230  0.23518908  0.01333483    -0.58700
H2642       H  0.11081775  0.23432649  0.09769178     0.15900
O2643       O  0.17271482  0.22973626  0.13015376    -0.60100
H2644       H  0.17595720  0.23061032  0.04549603     0.14400
H2645       H  0.14866565  0.19065464  0.90008887     0.46200
H2646       H  0.11183949  0.22224704  0.00427795     0.41600
H2647       H  0.17551610  0.21633517  0.13285874     0.45000
H2648       H  0.12935706  0.26675056  0.97218483     0.36500
C2649       C  0.12120904  0.24058815  0.54069072    -0.27700
C2650       C  0.13971034  0.24342190  0.52824618     0.01900
C2651       C  0.15304186  0.24754677  0.56032260     0.30000
C2652       C  0.14782093  0.24820956  0.60433461    -0.19500
C2653       C  0.12948217  0.24439427  0.61677748    -0.28900
C2654       C  0.11607073  0.24090588  0.58451540     0.44000
C2655       C  0.14452951  0.24266004  0.48143461     0.05200
O2656       O  0.17125771  0.25033831  0.54913297    -0.57400
H2657       H  0.15830952  0.25067176  0.62888596     0.18100
O2658       O  0.09796944  0.23732772  0.59555020    -0.64200
H2659       H  0.11068714  0.23800195  0.51627820     0.16600
C2660       C  0.13914635  0.22749235  0.45548259     0.28800
C2661       C  0.14114479  0.22834118  0.41012622    -0.25100
C2662       C  0.14843553  0.24422805  0.38999825    -0.24300
C2663       C  0.15487941  0.25894107  0.41646111     0.40300
C2664       C  0.15289297  0.25802825  0.46174919    -0.26800
O2665       O  0.13194651  0.21179747  0.47431131    -0.58700
H2666       H  0.13644995  0.21672559  0.39067076     0.15900
O2667       O  0.16252876  0.27459750  0.39854410    -0.60100
H2668       H  0.15704638  0.26980894  0.48135437     0.14400
H2669       H  0.09214930  0.24966980  0.59946994     0.46200
H2670       H  0.11862372  0.21169216  0.46637861     0.41600
H2671       H  0.15212097  0.28351798  0.39596313     0.45000
H2672       H  0.17710285  0.23791573  0.55060086     0.36500
C2673       C  0.09436893  0.30765250  0.82094067    -0.27700
C2674       C  0.07509771  0.30806007  0.81612063     0.01900
C2675       C  0.06619838  0.29421860  0.79176579     0.30000
C2676       C  0.07657809  0.27964134  0.77404025    -0.19500
C2677       C  0.09581988  0.27854178  0.78106989    -0.28900
C2678       C  0.10477086  0.29308757  0.80352285     0.44000
C2679       C  0.06437345  0.32130072  0.84244718     0.05200
O2680       O  0.04734143  0.29461844  0.78612251    -0.57400
H2681       H  0.06941673  0.26878019  0.75644729     0.18100
O2682       O  0.12358137  0.29295597  0.80992980    -0.64200
H2683       H  0.10126679  0.31826452  0.83994157     0.16600
C2684       C  0.05779712  0.31585275  0.88360164     0.28800
C2685       C  0.04968113  0.32886451  0.91130927    -0.25100
C2686       C  0.04779747  0.34748218  0.89849001    -0.24300
C2687       C  0.05368706  0.35272829  0.85615816     0.40300
C2688       C  0.06214989  0.33965841  0.82867304    -0.26800
O2689       O  0.06016125  0.29799509  0.89788330    -0.58700
H2690       H  0.04513417  0.32432694  0.94330637     0.15900
O2691       O  0.05184313  0.37062502  0.84179575    -0.60100
H2692       H  0.06726613  0.34390336  0.79691739     0.14400
H2693       H  0.12891575  0.29880468  0.78342865     0.46200
H2694       H  0.04820525  0.29171586  0.89197236     0.41600
H2695       H  0.03963676  0.37104252  0.82699709     0.45000
H2696       H  0.04222628  0.28648733  0.80929492     0.36500
C2697       C  0.06328420  0.17218688  0.87228252    -0.27700
C2698       C  0.05020714  0.18472585  0.88891277     0.01900
C2699       C  0.05172613  0.20364231  0.87900639     0.30000
C2700       C  0.06619044  0.20980312  0.85222920    -0.19500
C2701       C  0.07916318  0.19723028  0.83481297    -0.28900
C2702       C  0.07763289  0.17824928  0.84523355     0.44000
C2703       C  0.03499353  0.17760008  0.91618481     0.05200
O2704       O  0.03950977  0.21621107  0.89654357    -0.57400
H2705       H  0.06722111  0.22446533  0.84507016     0.18100
O2706       O  0.08985228  0.16543451  0.82873402    -0.64200
H2707       H  0.06213539  0.15754900  0.87968818     0.16600
C2708       C  0.01645393  0.17870823  0.90221068     0.28800
C2709       C  0.00255992  0.16960528  0.92578806    -0.25100
C2710       C  0.00708330  0.15893398  0.96250375    -0.24300
C2711       C  0.02553390  0.15847982  0.97738669     0.40300
C2712       C  0.03931570  0.16789804  0.95437102    -0.26800
O2713       O  0.01195994  0.18767466  0.86421720    -0.58700
H2714       H  0.98846967  0.16982586  0.91360832     0.15900
O2715       O  0.03023336  0.14869569  0.01413035    -0.60100
H2716       H  0.05355367  0.16705190  0.96540602     0.14400
H2717       H  0.08443974  0.16141582  0.80054667     0.46200
H2718       H  0.01350674  0.17827365  0.84084861     0.41600
H2719       H  0.03597894  0.13707086  0.00329882     0.45000
H2720       H  0.03155642  0.22019830  0.87192637     0.36500
C2721       C  0.21747145  0.23154984  0.71348405    -0.27700
C2722       C  0.22578145  0.23149772  0.75481307     0.01900
C2723       C  0.21609451  0.22413369  0.79071750     0.30000
C2724       C  0.19799961  0.21762304  0.78532954    -0.19500
C2725       C  0.18927483  0.21858442  0.74448221    -0.28900
C2726       C  0.19926208  0.22527690  0.70819440     0.44000
C2727       C  0.24481404  0.23863358  0.75968817     0.05200
O2728       O  0.22371246  0.22457270  0.83170518    -0.57400
H2729       H  0.19031908  0.21311794  0.81389699     0.18100
O2730       O  0.19121999  0.22594332  0.66768081    -0.64200
H2731       H  0.22501930  0.23677854  0.68542885     0.16600
C2732       C  0.25911487  0.22664713  0.77249716     0.28800
C2733       C  0.27736614  0.23286489  0.77225668    -0.25100
C2734       C  0.28179022  0.25086729  0.75821664    -0.24300
C2735       C  0.26743168  0.26330169  0.74813045     0.40300
C2736       C  0.24899892  0.25707866  0.74859342    -0.26800
O2737       O  0.25554045  0.20846385  0.78246434    -0.58700
H2738       H  0.28828721  0.22311575  0.78020890     0.15900
O2739       O  0.27132998  0.28088680  0.73396946    -0.60100
H2740       H  0.23802056  0.26642132  0.73875124     0.14400
H2741       H  0.18840608  0.23921026  0.66251401     0.46200
H2742       H  0.25590547  0.20181349  0.75412223     0.41600
H2743       H  0.27124509  0.28863296  0.76071868     0.45000
H2744       H  0.22631239  0.21146680  0.83921676     0.36500
C2745       C  0.01907459  0.83580180  0.62905547    -0.27700
C2746       C  0.03729901  0.84239006  0.62486038     0.01900
C2747       C  0.04078920  0.85796374  0.59852438     0.30000
C2748       C  0.02608352  0.86712522  0.57815856    -0.19500
C2749       C  0.00771586  0.86102412  0.58356222    -0.28900
C2750       C  0.00431319  0.84500709  0.60881574     0.44000
C2751       C  0.05249252  0.83325874  0.64912459     0.05200
O2752       O  0.05861457  0.86397120  0.59155575    -0.57400
H2753       H  0.02910978  0.87916990  0.55829011     0.18100
O2754       O  0.98663974  0.83843718  0.61479455    -0.64200
H2755       H  0.01622308  0.82377544  0.64913641     0.16600
C2756       C  0.06338621  0.84335375  0.67888925     0.28800
C2757       C  0.07764729  0.83455184  0.70160602    -0.25100
C2758       C  0.08096887  0.81552859  0.69623486    -0.24300
C2759       C  0.07004413  0.80538795  0.66657712     0.40300
C2760       C  0.05589577  0.81426389  0.64334486    -0.26800
O2761       O  0.05987876  0.86172514  0.68693066    -0.58700
H2762       H  0.08570824  0.84251906  0.72468104     0.15900
O2763       O  0.07313165  0.78685104  0.65987115    -0.60100
H2764       H  0.04760534  0.80633090  0.62059046     0.14400
H2765       H  0.98186905  0.84496151  0.64104594     0.46200
H2766       H  0.05008515  0.86182020  0.70974461     0.41600
H2767       H  0.08315178  0.78624973  0.63764592     0.45000
H2768       H  0.05941959  0.87625949  0.60593997     0.36500
C2769       C  0.94661609  0.91188388  0.76060344    -0.27700
C2770       C  0.96304081  0.90733380  0.78208075     0.01900
C2771       C  0.97949572  0.90492160  0.75807286     0.30000
C2772       C  0.97930322  0.90673145  0.71262888    -0.19500
C2773       C  0.96276266  0.91095708  0.69059938    -0.28900
C2774       C  0.94629604  0.91354091  0.71520108     0.44000
C2775       C  0.96265541  0.90414253  0.82939979     0.05200
O2776       O  0.99571382  0.90035365  0.77870228    -0.57400
H2777       H  0.99206998  0.90453857  0.69460398     0.18100
O2778       O  0.92967175  0.91715413  0.69531318    -0.64200
H2779       H  0.93387501  0.91360676  0.77904359     0.16600
C2780       C  0.96263321  0.91903733  0.85883641     0.28800
C2781       C  0.96323485  0.91559862  0.90370532    -0.25100
C2782       C  0.96361937  0.89733692  0.91976458    -0.24300
C2783       C  0.96270807  0.88244901  0.88989213     0.40300
C2784       C  0.96238977  0.88594960  0.84507175    -0.26800
O2785       O  0.96296704  0.93695317  0.84396930    -0.58700
H2786       H  0.96417870  0.92726282  0.92579194     0.15900
O2787       O  0.96264702  0.86441437  0.90393296    -0.60100
H2788       H  0.96212482  0.87442563  0.82237659     0.14400
H2789       H  0.92388991  0.90484481  0.69067027     0.46200
H2790       H  0.94976178  0.94063884  0.84158501     0.41600
H2791       H  0.94947208  0.86159305  0.91048264     0.45000
H2792       H  0.00124410  0.91234347  0.78760929     0.36500
C2793       C  0.99203954  0.89619970  0.34662191    -0.27700
C2794       C  0.98306295  0.91172902  0.32929867     0.01900
C2795       C  0.97518301  0.92499240  0.35722408     0.30000
C2796       C  0.97564292  0.92220309  0.40229616    -0.19500
C2797       C  0.98368359  0.90610849  0.41975053    -0.28900
C2798       C  0.99223786  0.89321497  0.39164274     0.44000
C2799       C  0.98168930  0.91356284  0.28182953     0.05200
O2800       O  0.96636441  0.94027723  0.34068378    -0.57400
H2801       H  0.96879627  0.93211804  0.42344821     0.18100
O2802       O  0.00077974  0.87770276  0.40788235    -0.64200
H2803       H  0.99838899  0.88609459  0.32505122     0.16600
C2804       C  0.99695259  0.91973704  0.25758906     0.28800
C2805       C  0.99629455  0.91936188  0.21216653    -0.25100
C2806       C  0.98058463  0.91251465  0.19022006    -0.24300
C2807       C  0.96498102  0.90695972  0.21484246     0.40300
C2808       C  0.96561060  0.90760711  0.26048485    -0.26800
O2809       O  0.01265254  0.92592815  0.27811739    -0.58700
H2810       H  0.00846081  0.92383213  0.19421440     0.15900
O2811       O  0.94914169  0.90083611  0.19483489    -0.60100
H2812       H  0.95377514  0.90287463  0.27930127     0.14400
H2813       H  0.99192041  0.86741836  0.40288633     0.46200
H2814       H  0.02088675  0.91495244  0.28007329     0.41600
H2815       H  0.95013591  0.88712995  0.19469501     0.45000
H2816       H  0.97630719  0.94955201  0.33595642     0.36500
C2817       C  0.86377598  0.83875259  0.36145446    -0.27700
C2818       C  0.87399569  0.83732442  0.40019664     0.01900
C2819       C  0.87561907  0.81987100  0.42043798     0.30000
C2820       C  0.86763898  0.80416448  0.40137384    -0.19500
C2821       C  0.85805818  0.80530994  0.36152924    -0.28900
C2822       C  0.85574244  0.82299423  0.34224805     0.44000
C2823       C  0.88379981  0.85366467  0.41878881     0.05200
O2824       O  0.88575565  0.81784692  0.45796481    -0.57400
H2825       H  0.86976371  0.79085864  0.41693348     0.18100
O2826       O  0.84672493  0.82494743  0.30319073    -0.64200
H2827       H  0.86234272  0.85207474  0.34555073     0.16600
C2828       C  0.89827639  0.86249755  0.39580836     0.28800
C2829       C  0.91025209  0.87469367  0.41774469    -0.25100
C2830       C  0.90770902  0.87866625  0.46235591    -0.24300
C2831       C  0.89196296  0.87130935  0.48384236     0.40300
C2832       C  0.88033080  0.85883017  0.46217956    -0.26800
O2833       O  0.90191128  0.85797219  0.35313881    -0.58700
H2834       H  0.92216484  0.88020908  0.40046705     0.15900
O2835       O  0.88891464  0.87452545  0.52741427    -0.60100
H2836       H  0.86914472  0.85230325  0.48018230     0.14400
H2837       H  0.83361952  0.82747136  0.31109986     0.46200
H2838       H  0.89594930  0.86787659  0.33569369     0.41600
H2839       H  0.88069859  0.88553582  0.52847174     0.45000
H2840       H  0.89875099  0.81610493  0.44806868     0.36500
C2841       C  0.91485987  0.82087931  0.63392373    -0.27700
C2842       C  0.91832175  0.82219286  0.67883453     0.01900
C2843       C  0.92724037  0.83798427  0.69551397     0.30000
C2844       C  0.93211900  0.85247405  0.66738466    -0.19500
C2845       C  0.92827264  0.85137272  0.62252163    -0.28900
C2846       C  0.91973887  0.83531788  0.60577368     0.44000
C2847       C  0.91122824  0.80754005  0.70799332     0.05200
O2848       O  0.93170626  0.83906437  0.73896040    -0.57400
H2849       H  0.93914249  0.86449637  0.68060579     0.18100
O2850       O  0.91579651  0.83372415  0.56214117    -0.64200
H2851       H  0.90788560  0.80880457  0.62083936     0.16600
C2852       C  0.89684558  0.81142758  0.73771483     0.28800
C2853       C  0.88841769  0.79703303  0.76085703    -0.25100
C2854       C  0.89400818  0.77855868  0.75460085    -0.24300
C2855       C  0.90892713  0.77477616  0.72589894     0.40300
C2856       C  0.91737912  0.78924387  0.70282962    -0.26800
O2857       O  0.89030899  0.82915401  0.74277497    -0.58700
H2858       H  0.87700456  0.80031230  0.78262978     0.15900
O2859       O  0.91488092  0.75697408  0.71870834    -0.60100
H2860       H  0.92837646  0.78611611  0.67976913     0.14400
H2861       H  0.90312553  0.83886744  0.55882488     0.46200
H2862       H  0.88061622  0.83061452  0.72014587     0.41600
H2863       H  0.90749169  0.75245298  0.69361194     0.45000
H2864       H  0.92324126  0.84852059  0.75149632     0.36500
C2865       C  0.91790005  0.17129942  0.43056212    -0.27700
C2866       C  0.92445925  0.18523317  0.40287273     0.01900
C2867       C  0.94369756  0.18838208  0.39963836     0.30000
C2868       C  0.95611496  0.17690948  0.42223084    -0.19500
C2869       C  0.94957465  0.16217367  0.44798584    -0.28900
C2870       C  0.93018380  0.15978508  0.45285053     0.44000
C2871       C  0.91100312  0.19534360  0.37538174     0.05200
O2872       O  0.95039123  0.20280938  0.37502976    -0.57400
H2873       H  0.97087313  0.17925447  0.41855839     0.18100
O2874       O  0.92297354  0.14613268  0.47901976    -0.64200
H2875       H  0.90312861  0.16883009  0.43360821     0.16600
C2876       C  0.91241951  0.19467521  0.32959331     0.28800
C2877       C  0.89918032  0.20353039  0.30387979    -0.25100
C2878       C  0.88403933  0.21280377  0.32297967    -0.24300
C2879       C  0.88226379  0.21295449  0.36886882     0.40300
C2880       C  0.89575172  0.20432718  0.39468146    -0.26800
O2881       O  0.92648134  0.18504935  0.30955530    -0.58700
H2882       H  0.90070727  0.20296698  0.26869267     0.15900
O2883       O  0.86788594  0.22210662  0.38889505    -0.60100
H2884       H  0.89433475  0.20467406  0.42990653     0.14400
H2885       H  0.91983804  0.13581999  0.45893732     0.46200
H2886       H  0.92220160  0.17200028  0.30866127     0.41600
H2887       H  0.85830869  0.21251051  0.39422376     0.45000
H2888       H  0.95722718  0.19701202  0.35040073     0.36500
C2889       C  0.98709937  0.08680534  0.28048323    -0.27700
C2890       C  0.98230506  0.10321711  0.25898619     0.01900
C2891       C  0.97455843  0.11804703  0.28264997     0.30000
C2892       C  0.97229077  0.11655613  0.32774243    -0.19500
C2893       C  0.97799151  0.10051160  0.34964499    -0.28900
C2894       C  0.98505738  0.08538538  0.32561756     0.44000
C2895       C  0.98484583  0.10454232  0.21156272     0.05200
O2896       O  0.96890704  0.13388558  0.26177778    -0.57400
H2897       H  0.96691548  0.12832449  0.34579630     0.18100
O2898       O  0.99046812  0.06936330  0.34601493    -0.64200
H2899       H  0.99280556  0.07523477  0.26229115     0.16600
C2900       C  0.99577126  0.11868055  0.19306937     0.28800
C2901       C  0.99583541  0.12122037  0.14793312    -0.25100
C2902       C  0.98566792  0.10929708  0.12106483    -0.24300
C2903       C  0.97584850  0.09434574  0.13934799     0.40300
C2904       C  0.97540156  0.09211132  0.18450788    -0.26800
O2905       O  0.00593060  0.13039003  0.21891341    -0.58700
H2906       H  0.00349381  0.13269645  0.13393300     0.15900
O2907       O  0.96522303  0.08296938  0.11369641    -0.60100
H2908       H  0.96698526  0.08118454  0.19855135     0.14400
H2909       H  0.97891982  0.06209502  0.34996125     0.46200
H2910       H  0.01741272  0.12345523  0.22593312     0.41600
H2911       H  0.97322214  0.07213510  0.10712803     0.45000
H2912       H  0.97796523  0.14356182  0.27028214     0.36500
C2913       C  0.97430906  0.13281397  0.69222992    -0.27700
C2914       C  0.97217693  0.11516766  0.71050632     0.01900
C2915       C  0.96869521  0.09989479  0.68321778     0.30000
C2916       C  0.96740944  0.10235769  0.63825903    -0.19500
C2917       C  0.96991195  0.11992751  0.61952683    -0.28900
C2918       C  0.97334871  0.13528504  0.64703778     0.44000
C2919       C  0.97251228  0.11281437  0.75821674     0.05200
O2920       O  0.96675865  0.08241983  0.70020820    -0.57400
H2921       H  0.96505923  0.09029356  0.61794977     0.18100
O2922       O  0.97566888  0.15276013  0.63030677    -0.64200
H2923       H  0.97662068  0.14472171  0.71306803     0.16600
C2924       C  0.98784189  0.11827196  0.78342900     0.28800
C2925       C  0.98765958  0.11538096  0.82864194    -0.25100
C2926       C  0.97223993  0.10716942  0.84910108    -0.24300
C2927       C  0.95685012  0.10192383  0.82342388     0.40300
C2928       C  0.95713437  0.10477222  0.77856088    -0.26800
O2929       O  0.00325704  0.12579735  0.76397276    -0.58700
H2930       H  0.99956597  0.11962946  0.84764368     0.15900
O2931       O  0.94131026  0.09411811  0.84166116    -0.60100
H2932       H  0.94514574  0.10079170  0.75948691     0.14400
H2933       H  0.98928014  0.15467603  0.62901503     0.46200
H2934       H  0.00261249  0.13924956  0.77042641     0.41600
H2935       H  0.93271914  0.10461626  0.84706735     0.45000
H2936       H  0.97955747  0.07748415  0.70239196     0.36500
C2937       C  0.07762292  0.12393875  0.57419216    -0.27700
C2938       C  0.07545574  0.13240885  0.61501382     0.01900
C2939       C  0.05779549  0.13304731  0.63459901     0.30000
C2940       C  0.04234200  0.12659128  0.61174194    -0.19500
C2941       C  0.04422584  0.11940152  0.56927282    -0.28900
C2942       C  0.06220972  0.11723406  0.55147424     0.44000
C2943       C  0.09052234  0.14395814  0.63266733     0.05200
O2944       O  0.05523695  0.14187857  0.67385194    -0.57400
H2945       H  0.02871082  0.12839116  0.62615787     0.18100
O2946       O  0.06475463  0.11047265  0.51004240    -0.64200
H2947       H  0.09114811  0.12362060  0.55868247     0.16600
C2948       C  0.09930363  0.13963508  0.67230061     0.28800
C2949       C  0.11015625  0.15306530  0.69328307    -0.25100
C2950       C  0.11185415  0.17087109  0.67539539    -0.24300
C2951       C  0.10433643  0.17460385  0.63403647     0.40300
C2952       C  0.09385180  0.16112471  0.61279499    -0.26800
O2953       O  0.09654539  0.12272548  0.69166225    -0.58700
H2954       H  0.11565054  0.15016818  0.72545047     0.15900
O2955       O  0.10550257  0.19202907  0.61636595    -0.60100
H2956       H  0.08701635  0.16462815  0.58243495     0.14400
H2957       H  0.06675574  0.09697829  0.51382353     0.46200
H2958       H  0.08764276  0.12502947  0.71581550     0.41600
H2959       H  0.11687651  0.19186599  0.59808701     0.45000
H2960       H  0.05384367  0.13181826  0.69563947     0.36500
C2961       C  0.05946138  0.20368993  0.31197142    -0.27700
C2962       C  0.06517002  0.18527195  0.31832185     0.01900
C2963       C  0.08261166  0.17970818  0.30245780     0.30000
C2964       C  0.09440798  0.19264855  0.28262951    -0.19500
C2965       C  0.08921655  0.21139678  0.27841955    -0.28900
C2966       C  0.07128936  0.21671677  0.29234137     0.44000
C2967       C  0.05388250  0.17267122  0.34610614     0.05200
O2968       O  0.08861717  0.16183071  0.30795465    -0.57400
H2969       H  0.10798040  0.18803802  0.27193930     0.18100
O2970       O  0.06522137  0.23460766  0.28752041    -0.64200
H2971       H  0.04597161  0.20813452  0.32363684     0.16600
C2972       C  0.05050138  0.17734395  0.38994693     0.28800
C2973       C  0.04043518  0.16537346  0.41684986    -0.25100
C2974       C  0.03329270  0.14851744  0.40098820    -0.24300
C2975       C  0.03672546  0.14376286  0.35687969     0.40300
C2976       C  0.04708108  0.15575419  0.32993278    -0.26800
O2977       O  0.05770765  0.19329805  0.40737603    -0.58700
H2978       H  0.03828535  0.16940716  0.45056392     0.15900
O2979       O  0.03010672  0.12751297  0.33972909    -0.60100
H2980       H  0.04968046  0.15191966  0.29625732     0.14400
H2981       H  0.06771775  0.24069655  0.31593807     0.46200
H2982       H  0.04725698  0.20223141  0.40799592     0.41600
H2983       H  0.01790956  0.13071412  0.32689777     0.45000
H2984       H  0.09538909  0.16184386  0.33607941     0.36500
C2985       C  0.98552985  0.02039292  0.50827813    -0.27700
C2986       C  0.96716734  0.01698917  0.52193304     0.01900
C2987       C  0.95575155  0.03211907  0.53269879     0.30000
C2988       C  0.96240795  0.05020826  0.52810062    -0.19500
C2989       C  0.98048883  0.05373452  0.51270531    -0.28900
C2990       C  0.99226161  0.03861308  0.50392564     0.44000
C2991       C  0.96004445  0.99768293  0.52548743     0.05200
O2992       O  0.93781407  0.02939806  0.54630038    -0.57400
H2993       H  0.95308523  0.06162811  0.53506763     0.18100
O2994       O  0.00984578  0.04144068  0.48818571    -0.64200
H2995       H  0.99460003  0.00887971  0.50049429     0.16600
C2996       C  0.95986732  0.98564628  0.48918639     0.28800
C2997       C  0.95455370  0.96703517  0.49437595    -0.25100
C2998       C  0.94948558  0.96018680  0.53557010    -0.24300
C2999       C  0.94864504  0.97248389  0.57123969     0.40300
C3000       C  0.95378392  0.99106420  0.56602671    -0.26800
O3001       O  0.96502673  0.99192669  0.44866836    -0.58700
H3002       H  0.95559317  0.95768368  0.46682082     0.15900
O3003       O  0.94426661  0.96609330  0.61216382    -0.60100
H3004       H  0.95376113  0.00012027  0.59425603     0.14400
H3005       H  0.01783044  0.04199757  0.51444168     0.46200
H3006       H  0.97785147  0.98732358  0.44416657     0.41600
H3007       H  0.93052574  0.96578898  0.61312012     0.45000
H3008       H  0.93041316  0.02866529  0.51912510     0.36500
loop_ 
_geom_bond_atom_site_label_1 
_geom_bond_atom_site_label_2 
_geom_bond_distance 
_geom_bond_site_symmetry_2 
_ccdc_geom_bond_type 
O1          Cr19   2.000       .  S
O1            C9   1.266       .  A
O2          Cr19   1.970   1_455  S
O2            C3   1.260       .  A
C3            O4   1.267       .  A
C3         C2941   1.482       .  S
O4          Cr20   2.007       .  S
O5          Cr20   2.016       .  S
O5            C6   1.268   1_455  A
C6            O7   1.258       .  A
C6         C2989   1.485       .  S
O7          Cr21   1.979       .  S
O8          Cr21   1.969       .  S
O8            C9   1.264       .  A
C9         C2917   1.475       .  S
O10         Cr19   1.995       .  S
O10          C18   1.260       .  A
O11         Cr19   1.989   1_455  S
O11          C12   1.264       .  A
C12          O13   1.265       .  A
C12        C2974   1.493       .  S
O13         Cr20   2.002       .  S
O14         Cr20   1.995   1_655  S
O14          C15   1.266       .  A
C15          O16   1.265       .  A
C15        C2893   1.463       .  S
O16         Cr21   1.973       .  S
O17         Cr21   1.988       .  S
O17          C18   1.257       .  A
C18        C2869   1.485       .  S
Cr19         O22   1.766       .  S
Cr20         O22   1.772   1_455  S
Cr21         O22   1.766       .  S
O23         Cr41   1.968       .  S
O23          C31   1.262       .  A
O24         Cr41   1.992       .  S
O24          C25   1.262       .  A
C25          O26   1.268       .  A
C25        C2998   1.473       .  S
O26         Cr42   2.008       .  S
O27         Cr42   2.014       .  S
O27          C28   1.267       .  A
C28          O29   1.260       .  A
C28        C2830   1.489       .  S
O29         Cr43   1.980       .  S
O30         Cr43   2.004       .  S
O30          C31   1.268       .  A
C31        C2797   1.467       .  S
O32         Cr41   2.001       .  S
O32          C40   1.261       .  A
O33         Cr41   1.981       .  S
O33          C34   1.265       .  A
C34          O35   1.266       .  A
C34        C2773   1.480       .  S
O35         Cr42   2.001       .  S
O36         Cr42   1.979       .  S
O36          C37   1.262       .  A
C37          O38   1.264       .  A
C37        C2845   1.474       .  S
O38         Cr43   1.999       .  S
O39         Cr43   1.981       .  S
O39          C40   1.256       .  A
C40        C2749   1.482   1_655  S
Cr41         O44   1.766       .  S
Cr42         O44   1.764       .  S
Cr43         O44   1.767       .  S
O45         Cr63   1.945       .  S
O45          C53   1.256       .  A
O46         Cr63   1.992       .  S
O46          C47   1.264       .  A
C47          O48   1.262       .  A
C47        C2950   1.463       .  S
O48         Cr64   1.985       .  S
O49         Cr64   2.012       .  S
O49          C50   1.263       .  A
C50          O51   1.251       .  A
C50        C2725   1.469       .  S
O51         Cr65   1.960       .  S
O52         Cr65   2.012       .  S
O52          C53   1.269       .  A
C53        C2653   1.466       .  S
O54         Cr63   2.001       .  S
O54          C62   1.261       .  A
O55         Cr63   1.965       .  S
O55          C56   1.260       .  A
C56          O57   1.268       .  A
C56        C2701   1.474       .  S
O57         Cr64   2.010       .  S
O58         Cr64   1.949       .  S
O58          C59   1.258       .  A
C59          O60   1.271       .  A
C59        C2629   1.466       .  S
O60         Cr65   2.024       .  S
O61         Cr65   1.967       .  S
O61          C62   1.255       .  A
C62        C2677   1.479       .  S
Cr63         O66   1.764       .  S
Cr64         O66   1.773       .  S
Cr65         O66   1.765       .  S
O67         Cr85   1.976       .  S
O67          C75   1.264       .  A
O68         Cr85   1.972       .  S
O68          C69   1.258       .  A
C69          O70   1.264       .  A
C69        C2734   1.470       .  S
O70         Cr86   2.003       .  S
O71         Cr86   2.014       .  S
O71          C72   1.267       .  A
C72          O73   1.258       .  A
C72        C2581   1.486       .  S
O73         Cr87   1.968       .  S
O74         Cr87   2.009       .  S
O74          C75   1.271       .  A
C75        C2533   1.486       .  S
O76         Cr85   1.991       .  S
O76          C84   1.258       .  A
O77         Cr85   1.983       .  S
O77          C78   1.266       .  A
C78          O79   1.270       .  A
C78        C2509   1.483       .  S
O79         Cr86   2.006       .  S
O80         Cr86   1.974       .  S
O80          C81   1.260       .  A
C81          O82   1.267       .  A
C81        C2605   1.483       .  S
O82         Cr87   2.003       .  S
O83         Cr87   1.984       .  S
O83          C84   1.257       .  A
C84        C2557   1.481       .  S
Cr85         O88   1.766       .  S
Cr86         O88   1.769       .  S
Cr87         O88   1.760       .  S
O89        Cr107   1.971       .  S
O89          C97   1.262       .  A
O90        Cr107   1.981       .  S
O90          C91   1.261       .  A
C91          O92   1.271       .  A
C91        C2485   1.498       .  S
O92        Cr108   2.021       .  S
O93        Cr108   2.020       .  S
O93          C94   1.269       .  A
C94          O95   1.261       .  A
C94        C2821   1.494       .  S
O95        Cr109   1.974       .  S
O96        Cr109   2.001       .  S
O96          C97   1.266       .  A
C97        C2413   1.470       .  S
O98        Cr107   2.005       .  S
O98         C106   1.261       .  A
O99        Cr107   1.981       .  S
O99         C100   1.267       .  A
C100        O101   1.266       .  A
C100       C2446   1.476       .  S
O101       Cr108   1.993       .  S
O102       Cr108   1.993       .  S
O102        C103   1.263       .  A
C103        O104   1.263       .  A
C103       C2461   1.486       .  S
O104       Cr109   1.987       .  S
O105       Cr109   1.985       .  S
O105        C106   1.257       .  A
C106       C2389   1.488       .  S
Cr107       O110   1.770       .  S
Cr108       O110   1.769       .  S
Cr109       O110   1.767       .  S
O111       Cr129   2.002       .  S
O111        C119   1.268       .  A
O112       Cr129   1.964       .  S
O112        C113   1.255       .  A
C113        O114   1.271       .  A
C113       C2341   1.495       .  S
O114       Cr130   2.032       .  S
O115       Cr130   2.028       .  S
O115        C116   1.272       .  A
C116        O117   1.258       .  A
C116       C2494   1.487       .  S
O117       Cr131   1.974       .  S
O118       Cr131   1.969       .  S
O118        C119   1.263       .  A
C119       C2269   1.471       .  S
O120       Cr129   1.974       .  S
O120        C128   1.254       .  A
O121       Cr129   1.995       .  S
O121        C122   1.265       .  A
C122        O123   1.261       .  A
C122       C2374   1.483       .  S
O123       Cr130   1.983       .  S
O124       Cr130   2.004       .  S
O124        C125   1.269       .  A
C125        O126   1.268       .  A
C125       C2293   1.475       .  S
O126       Cr131   1.980       .  S
O127       Cr131   1.991       .  S
O127        C128   1.259       .  A
C128       C2317   1.471       .  S
Cr129       O132   1.768       .  S
Cr130       O132   1.771       .  S
Cr131       O132   1.766       .  S
O133       Cr151   2.004       .  S
O133        C141   1.268       .  A
O134       Cr151   1.971       .  S
O134        C135   1.260       .  A
C135        O136   1.270       .  A
C135       C2350   1.496       .  S
O136       Cr152   2.027   1_554  S
O137       Cr152   2.013   1_554  S
O137        C138   1.268       .  A
C138        O139   1.259   1_554  A
C138       C2245   1.478       .  S
O139       Cr153   1.979   1_556  S
O140       Cr153   1.978       .  S
O140        C141   1.264       .  A
C141       C2197   1.484       .  S
O142       Cr151   1.985       .  S
O142        C150   1.257       .  A
O143       Cr151   1.993       .  S
O143        C144   1.263   1_554  A
C144        O145   1.260       .  A
C144       C2230   1.472       .  S
O145       Cr152   1.975       .  S
O146       Cr152   2.005       .  S
O146        C147   1.269       .  A
C147        O148   1.267       .  A
C147       C2173   1.479       .  S
O148       Cr153   1.981   1_556  S
O149       Cr153   1.999       .  S
O149        C150   1.260       .  A
C150       C2149   1.487   1_554  S
Cr151       O154   1.767       .  S
Cr152       O154   1.766   1_556  S
Cr153       O154   1.769       .  S
O155       Cr173   1.961   1_556  S
O155        C163   1.260       .  A
O156       Cr173   1.977       .  S
O156        C157   1.257       .  A
C157        O158   1.263       .  A
C157       C2254   1.466   1_554  S
O158       Cr174   2.001       .  S
O159       Cr174   2.027   1_556  S
O159        C160   1.271       .  A
C160        O161   1.259       .  A
C160       C2590   1.488       .  S
O161       Cr175   1.964       .  S
O162       Cr175   1.992       .  S
O162        C163   1.265       .  A
C163       C2110   1.453       .  S
O164       Cr173   1.990       .  S
O164        C172   1.259       .  A
O165       Cr173   1.952       .  S
O165        C166   1.260       .  A
C166        O167   1.273       .  A
C166       C2077   1.475       .  S
O167       Cr174   2.015       .  S
O168       Cr174   1.978       .  S
O168        C169   1.259       .  A
C169        O170   1.260       .  A
C169       C2125   1.466       .  S
O170       Cr175   1.982   1_554  S
O171       Cr175   1.983   1_554  S
O171        C172   1.257       .  A
C172       C2053   1.477       .  S
Cr173       O176   1.769       .  S
Cr174       O176   1.771       .  S
Cr175       O176   1.763   1_556  S
O177       Cr195   1.953       .  S
O177        C185   1.258       .  A
O178       Cr195   2.003       .  S
O178        C179   1.268       .  A
C179        O180   1.267       .  A
C179       C2005   1.471       .  S
O180       Cr196   1.989       .  S
O181       Cr196   2.027       .  S
O181        C182   1.266       .  A
C182        O183   1.251       .  A
C182       C2029   1.485       .  S
O183       Cr197   1.964       .  S
O184       Cr197   2.015       .  S
O184        C185   1.270       .  A
C185       C1942   1.470       .  S
O186       Cr195   2.011       .  S
O186        C194   1.263       .  A
O187       Cr195   1.978       .  S
O187        C188   1.260       .  A
C188        O189   1.267       .  A
C188       C2758   1.476       .  S
O189       Cr196   2.014       .  S
O190       Cr196   1.950       .  S
O190        C191   1.259       .  A
C191        O192   1.272       .  A
C191       C1957   1.474       .  S
O192       Cr197   2.024       .  S
O193       Cr197   1.960       .  S
O193        C194   1.253       .  A
C194       C1990   1.484       .  S
Cr195       O198   1.768       .  S
Cr196       O198   1.779       .  S
Cr197       O198   1.769       .  S
O199       Cr217   1.967       .  S
O199        C207   1.263       .  A
O200       Cr217   1.979       .  S
O200        C201   1.259       .  A
C201        O202   1.265       .  A
C201       C2038   1.479       .  S
O202       Cr218   2.011       .  S
O203       Cr218   1.997       .  S
O203        C204   1.262       .  A
C204        O205   1.262       .  A
C204       C1918   1.493       .  S
O205       Cr219   1.986       .  S
O206       Cr219   2.019       .  S
O206        C207   1.274       .  A
C207       C1861   1.483       .  S
O208       Cr217   1.994       .  S
O208        C216   1.257       .  A
O209       Cr217   1.981       .  S
O209        C210   1.266       .  A
C210        O211   1.266       .  A
C210       C1846   1.477       .  S
O211       Cr218   1.998       .  S
O212       Cr218   1.976       .  S
O212        C213   1.262       .  A
C213        O214   1.268       .  A
C213       C2158   1.487       .  S
O214       Cr219   2.008       .  S
O215       Cr219   1.998       .  S
O215        C216   1.259       .  A
C216       C1885   1.492       .  S
Cr217       O220   1.772       .  S
Cr218       O220   1.771       .  S
Cr219       O220   1.771       .  S
O221       Cr239   2.003   1_556  S
O221        C229   1.267       .  A
O222       Cr239   1.978   1_456  S
O222        C223   1.259       .  A
C223        O224   1.265   1_556  A
C223       C2014   1.489       .  S
O224       Cr240   2.007       .  S
O225       Cr240   2.006       .  S
O225        C226   1.267   1_455  A
C226        O227   1.260       .  A
C226       C1822   1.479       .  S
O227       Cr241   1.983       .  S
O228       Cr241   1.971   1_556  S
O228        C229   1.262       .  A
C229       C2782   1.479       .  S
O230       Cr239   1.981       .  S
O230        C238   1.259       .  A
O231       Cr239   2.001   1_455  S
O231        C232   1.267       .  A
C232        O233   1.264       .  A
C232       C1789   1.484       .  S
O233       Cr240   1.987       .  S
O234       Cr240   1.996   1_655  S
O234        C235   1.266       .  A
C235        O236   1.265       .  A
C235       C2806   1.478       .  S
O236       Cr241   1.982       .  S
O237       Cr241   2.001       .  S
O237        C238   1.261       .  A
C238       C2470   1.487       .  S
Cr239       O242   1.766       .  S
Cr240       O242   1.769   1_455  S
Cr241       O242   1.769       .  S
O243       Cr261   1.961   1_554  S
O243        C251   1.261       .  A
O244       Cr261   1.978       .  S
O244        C245   1.260       .  A
C245        O246   1.271       .  A
C245       C1813   1.481       .  S
O246       Cr262   2.015       .  S
O247       Cr262   2.023   1_554  S
O247        C248   1.269       .  A
C248        O249   1.258       .  A
C248       C1750   1.491       .  S
O249       Cr263   1.972       .  S
O250       Cr263   2.009       .  S
O250        C251   1.269       .  A
C251       C2902   1.457       .  S
O252       Cr261   1.989       .  S
O252        C260   1.256       .  A
O253       Cr261   1.981       .  S
O253        C254   1.266       .  A
C254        O255   1.267       .  A
C254       C2926   1.476       .  S
O255       Cr262   1.998       .  S
O256       Cr262   1.976       .  S
O256        C257   1.260       .  A
C257        O258   1.265       .  A
C257       C1765   1.476       .  S
O258       Cr263   1.999   1_556  S
O259       Cr263   1.981   1_556  S
O259        C260   1.255       .  A
C260       C2710   1.467   1_655  S
Cr261       O264   1.764       .  S
Cr262       O264   1.763       .  S
Cr263       O264   1.763   1_554  S
O265       Cr283   2.024       .  S
O265        C273   1.273       .  A
O266       Cr283   1.961       .  S
O266        C267   1.251       .  A
C267        O268   1.267       .  A
C267       C1717   1.481       .  S
O268       Cr284   2.025       .  S
O269       Cr284   1.993       .  S
O269        C270   1.264       .  A
C270        O271   1.264       .  A
C270       C1909   1.467       .  S
O271       Cr285   1.997       .  S
O272       Cr285   1.949       .  S
O272        C273   1.259       .  A
C273       C2182   1.474       .  S
O274       Cr283   1.969       .  S
O274        C282   1.255       .  A
O275       Cr283   2.033       .  S
O275        C276   1.273       .  A
C276        O277   1.256       .  A
C276       C2206   1.477       .  S
O277       Cr284   1.943       .  S
O278       Cr284   2.019       .  S
O278        C279   1.271       .  A
C279        O280   1.259       .  A
C279       C1693   1.480       .  S
O280       Cr285   1.964       .  S
O281       Cr285   2.004       .  S
O281        C282   1.260       .  A
C282       C2365   1.482       .  S
Cr283       O286   1.766       .  S
Cr284       O286   1.773       .  S
Cr285       O286   1.765       .  S
O287       Cr305   2.008       .  S
O287        C295   1.271       .  A
O288       Cr305   1.970       .  S
O288        C289   1.260       .  A
C289        O290   1.267       .  A
C289       C1645   1.480       .  S
O290       Cr306   2.010       .  S
O291       Cr306   2.013       .  S
O291        C292   1.267       .  A
C292        O293   1.258       .  A
C292       C1726   1.481       .  S
O293       Cr307   1.976       .  S
O294       Cr307   1.957       .  S
O294        C295   1.261       .  A
C295       C2086   1.470       .  S
O296       Cr305   1.993       .  S
O296        C304   1.258       .  A
O297       Cr305   1.998       .  S
O297        C298   1.265       .  A
C298        O299   1.263       .  A
C298       C1669   1.492       .  S
O299       Cr306   1.990       .  S
O300       Cr306   1.995       .  S
O300        C301   1.266       .  A
C301        O302   1.262       .  A
C301       C2101   1.444       .  S
O302       Cr307   1.963       .  S
O303       Cr307   1.991       .  S
O303        C304   1.256       .  A
C304       C2614   1.485       .  S
Cr305       O308   1.764       .  S
Cr306       O308   1.771       .  S
Cr307       O308   1.766       .  S
O309       Cr327   1.968       .  S
O309        C317   1.263       .  A
O310       Cr327   1.974       .  S
O310        C311   1.258       .  A
C311        O312   1.270       .  A
C311       C1630   1.481       .  S
O312       Cr328   2.019       .  S
O313       Cr328   2.024       .  S
O313        C314   1.269       .  A
C314        O315   1.260       .  A
C314       C1741   1.497       .  S
O315       Cr329   1.975       .  S
O316       Cr329   1.999       .  S
O316        C317   1.267       .  A
C317       C1573   1.471       .  S
O318       Cr327   1.992       .  S
O318        C326   1.257       .  A
O319       Cr327   1.977       .  S
O319        C320   1.266       .  A
C320        O321   1.269       .  A
C320       C1558   1.472       .  S
O321       Cr328   2.005       .  S
O322       Cr328   1.987       .  S
O322        C323   1.263       .  A
C323        O324   1.263       .  A
C323       C2878   1.479       .  S
O324       Cr329   1.989       .  S
O325       Cr329   1.989       .  S
O325        C326   1.259       .  A
C326       C1606   1.485       .  S
Cr327       O330   1.766       .  S
Cr328       O330   1.771       .  S
Cr329       O330   1.766       .  S
O331       Cr349   1.937       .  S
O331        C339   1.255       .  A
O332       Cr349   1.996       .  S
O332        C333   1.267       .  A
C333        O334   1.266       .  A
C333       C1654   1.466       .  S
O334       Cr350   1.987       .  S
O335       Cr350   2.032       .  S
O335        C336   1.268       .  A
C336        O337   1.251       .  A
C336       C1621   1.482       .  S
O337       Cr351   1.959       .  S
O338       Cr351   2.022       .  S
O338        C339   1.271       .  A
C339       C1510   1.466       .  S
O340       Cr349   2.001       .  S
O340        C348   1.260       .  A
O341       Cr349   1.961       .  S
O341        C342   1.257       .  A
C342        O343   1.270       .  A
C342       C2062   1.469       .  S
O343       Cr350   2.020       .  S
O344       Cr350   1.950       .  S
O344        C345   1.258       .  A
C345        O346   1.272       .  A
C345       C1486   1.476       .  S
O346       Cr351   2.025       .  S
O347       Cr351   1.956       .  S
O347        C348   1.252       .  A
C348       C1534   1.470       .  S
Cr349       O352   1.761       .  S
Cr350       O352   1.772       .  S
Cr351       O352   1.762       .  S
O353       Cr371   2.006       .  S
O353        C361   1.269       .  A
O354       Cr371   1.971       .  S
O354        C355   1.260       .  A
C355        O356   1.264       .  A
C355       C1438   1.480       .  S
O356       Cr372   1.999       .  S
O357       Cr372   2.014       .  S
O357        C358   1.269       .  A
C358        O359   1.259       .  A
C358       C1453   1.483       .  S
O359       Cr373   1.979       .  S
O360       Cr373   1.969       .  S
O360        C361   1.264       .  A
C361       C1381   1.476       .  S
O362       Cr371   1.994       .  S
O362        C370   1.258       .  A
O363       Cr371   1.995       .  S
O363        C364   1.264   1_554  A
C364        O365   1.266       .  A
C364       C1894   1.495       .  S
O365       Cr372   2.003   1_556  S
O366       Cr372   1.979   1_556  S
O366        C367   1.260       .  A
C367        O368   1.266       .  A
C367       C1357   1.467       .  S
O368       Cr373   1.983   1_556  S
O369       Cr373   1.985       .  S
O369        C370   1.257       .  A
C370       C1405   1.483   1_554  S
Cr371       O374   1.765       .  S
Cr372       O374   1.773       .  S
Cr373       O374   1.767       .  S
O375       Cr393   2.019   1_556  S
O375        C383   1.271       .  A
O376       Cr393   1.961       .  S
O376        C377   1.252       .  A
C377        O378   1.268       .  A
C377       C1462   1.481       .  S
O378       Cr394   2.031       .  S
O379       Cr394   1.988   1_556  S
O379        C380   1.265       .  A
C380        O381   1.266       .  A
C380       C1342   1.465       .  S
O381       Cr395   1.997   1_556  S
O382       Cr395   1.942   1_556  S
O382        C383   1.256       .  A
C383       C1294   1.461       .  S
O384       Cr393   1.963       .  S
O384        C392   1.253       .  A
O385       Cr393   2.021       .  S
O385        C386   1.270       .  A
C386        O387   1.256       .  A
C386       C1261   1.471       .  S
O387       Cr394   1.946       .  S
O388       Cr394   2.018       .  S
O388        C389   1.270       .  A
C389        O390   1.257       .  A
C389       C1525   1.475       .  S
O390       Cr395   1.955       .  S
O391       Cr395   2.011       .  S
O391        C392   1.262       .  A
C392       C1309   1.475       .  S
Cr393       O396   1.761       .  S
Cr394       O396   1.774       .  S
Cr395       O396   1.764       .  S
O397       Cr415   1.975       .  S
O397        C405   1.263       .  A
O398       Cr415   1.978       .  S
O398        C399   1.261       .  A
C399        O400   1.267       .  A
C399       C1237   1.473       .  S
O400       Cr416   2.002       .  S
O401       Cr416   2.017       .  S
O401        C402   1.266       .  A
C402        O403   1.257       .  A
C402       C1189   1.484       .  S
O403       Cr417   1.969       .  S
O404       Cr417   2.002       .  S
O404        C405   1.269       .  A
C405       C1966   1.483       .  S
O406       Cr415   1.996       .  S
O406        C414   1.260       .  A
O407       Cr415   1.994       .  S
O407        C408   1.269       .  A
C408        O409   1.265       .  A
C408       C1933   1.484       .  S
O409       Cr416   1.996       .  S
O410       Cr416   1.971       .  S
O410        C411   1.260       .  A
C411        O412   1.266       .  A
C411       C1213   1.475       .  S
O412       Cr417   1.995       .  S
O413       Cr417   1.988       .  S
O413        C414   1.257       .  A
C414       C1798   1.486       .  S
Cr415       O418   1.764       .  S
Cr416       O418   1.770       .  S
Cr417       O418   1.761       .  S
O419       Cr437   1.941       .  S
O419        C427   1.256       .  A
O420       Cr437   1.995       .  S
O420        C421   1.264       .  A
C421        O422   1.261       .  A
C421       C1429   1.461       .  S
O422       Cr438   1.983       .  S
O423       Cr438   2.014       .  S
O423        C424   1.264       .  A
C424        O425   1.251       .  A
C424       C1246   1.470       .  S
O425       Cr439   1.959       .  S
O426       Cr439   2.025       .  S
O426        C427   1.272       .  A
C427       C1837   1.469       .  S
O428       Cr437   2.001       .  S
O428        C436   1.259       .  A
O429       Cr437   1.962       .  S
O429        C430   1.259       .  A
C430        O431   1.269       .  A
C430       C1165   1.464       .  S
O431       Cr438   2.015       .  S
O432       Cr438   1.948       .  S
O432        C433   1.257       .  A
C433        O434   1.272       .  A
C433       C1870   1.471       .  S
O434       Cr439   2.031       .  S
O435       Cr439   1.968       .  S
O435        C436   1.255       .  A
C436       C1702   1.476       .  S
Cr437       O440   1.762       .  S
Cr438       O440   1.773       .  S
Cr439       O440   1.762       .  S
O441       Cr459   1.972       .  S
O441        C449   1.263       .  A
O442       Cr459   1.986   1_455  S
O442        C443   1.260       .  A
C443        O444   1.270       .  A
C443       C1150   1.483       .  S
O444       Cr460   2.014       .  S
O445       Cr460   2.023       .  S
O445        C446   1.270       .  A
C446        O447   1.259       .  A
C446       C1198   1.487       .  S
O447       Cr461   1.972       .  S
O448       Cr461   1.998   1_655  S
O448        C449   1.267       .  A
C449       C1102   1.475       .  S
O450       Cr459   1.996       .  S
O450        C458   1.259       .  A
O451       Cr459   1.978       .  S
O451        C452   1.264   1_655  A
C452        O453   1.268       .  A
C452       C1078   1.478       .  S
O453       Cr460   1.997       .  S
O454       Cr460   1.992       .  S
O454        C455   1.262       .  A
C455        O456   1.264       .  A
C455       C1981   1.487       .  S
O456       Cr461   1.991       .  S
O457       Cr461   1.982       .  S
O457        C458   1.257   1_455  A
C458       C1126   1.483       .  S
Cr459       O462   1.768   1_655  S
Cr460       O462   1.771       .  S
Cr461       O462   1.766       .  S
O463       Cr481   2.008   1_455  S
O463        C471   1.271       .  A
O464       Cr481   1.971       .  S
O464        C465   1.260       .  A
C465        O466   1.268       .  A
C465       C1045   1.491       .  S
O466       Cr482   2.018       .  S
O467       Cr482   2.022       .  S
O467        C468   1.271       .  A
C468        O469   1.261   1_655  A
C468       C1141   1.499       .  S
O469       Cr483   1.987       .  S
O470       Cr483   1.958       .  S
O470        C471   1.262       .  A
C471        C997   1.470       .  S
O472       Cr481   1.990   1_455  S
O472        C480   1.256       .  A
O473       Cr481   1.995       .  S
O473        C474   1.264       .  A
C474        O475   1.263       .  A
C474       C1597   1.488       .  S
O475       Cr482   1.987       .  S
O476       Cr482   1.997       .  S
O476        C477   1.268   1_655  A
C477        O478   1.264       .  A
C477        C973   1.474       .  S
O478       Cr483   1.973       .  S
O479       Cr483   1.990       .  S
O479        C480   1.257       .  A
C480       C1021   1.482       .  S
Cr481       O484   1.764       .  S
Cr482       O484   1.767       .  S
Cr483       O484   1.768   1_455  S
O485       Cr503   2.005       .  S
O485        C493   1.267       .  A
O486       Cr503   1.981       .  S
O486        C487   1.261       .  A
C487        O488   1.265       .  A
C487       C1054   1.486       .  S
O488       Cr504   2.002       .  S
O489       Cr504   1.989       .  S
O489        C490   1.264       .  A
C490        O491   1.261       .  A
C490        C949   1.459       .  S
O491       Cr505   1.983       .  S
O492       Cr505   1.966       .  S
O492        C493   1.260       .  A
C493       C1549   1.468       .  S
O494       Cr503   1.981       .  S
O494        C502   1.258       .  A
O495       Cr503   2.002       .  S
O495        C496   1.265       .  A
C496        O497   1.261       .  A
C496        C925   1.473       .  S
O497       Cr504   1.978       .  S
O498       Cr504   1.988       .  S
O498        C499   1.263       .  A
C499        O500   1.265       .  A
C499       C1582   1.474       .  S
O500       Cr505   1.986       .  S
O501       Cr505   1.998       .  S
O501        C502   1.261       .  A
C502       C1774   1.484       .  S
Cr503       O506   1.765       .  S
Cr504       O506   1.764       .  S
Cr505       O506   1.768       .  S
O507       Cr525   1.972       .  S
O507        C515   1.262       .  A
O508       Cr525   1.975       .  S
O508        C509   1.260       .  A
C509        O510   1.266       .  A
C509        C958   1.474       .  S
O510       Cr526   1.999       .  S
O511       Cr526   1.999       .  S
O511        C512   1.262       .  A
C512        O513   1.260       .  A
C512       C1333   1.485       .  S
O513       Cr527   1.979       .  S
O514       Cr527   2.005       .  S
O514        C515   1.269       .  A
C515       C1477   1.483       .  S
O516       Cr525   1.992       .  S
O516        C524   1.259       .  A
O517       Cr525   1.993       .  S
O517        C518   1.268       .  A
C518        O519   1.263       .  A
C518       C1501   1.475       .  S
O519       Cr526   1.989       .  S
O520       Cr526   1.977       .  S
O520        C521   1.262       .  A
C521        O522   1.265       .  A
C521        C901   1.475       .  S
O522       Cr527   1.994       .  S
O523       Cr527   1.995       .  S
O523        C524   1.259       .  A
C524       C1678   1.490       .  S
Cr525       O528   1.766       .  S
Cr526       O528   1.769       .  S
Cr527       O528   1.765       .  S
O529       Cr547   2.006   1_456  S
O529        C537   1.269       .  A
O530       Cr547   1.971   1_556  S
O530        C531   1.258       .  A
C531        O532   1.267   1_556  A
C531        C853   1.486       .  S
O532       Cr548   2.009       .  S
O533       Cr548   2.016       .  S
O533        C534   1.267       .  A
C534        O535   1.258   1_655  A
C534        C886   1.489       .  S
O535       Cr549   1.977       .  S
O536       Cr549   1.969   1_556  S
O536        C537   1.263       .  A
C537       C1069   1.466       .  S
O538       Cr547   1.985   1_455  S
O538        C546   1.258       .  A
O539       Cr547   2.005       .  S
O539        C540   1.266       .  A
C540        O541   1.263       .  A
C540       C2398   1.484       .  S
O541       Cr548   1.986       .  S
O542       Cr548   1.999       .  S
O542        C543   1.268   1_655  A
C543        O544   1.268       .  A
C543       C1093   1.475   1_455  S
O544       Cr549   1.982       .  S
O545       Cr549   1.987       .  S
O545        C546   1.256       .  A
C546       C1222   1.479       .  S
Cr547       O550   1.765       .  S
Cr548       O550   1.764       .  S
Cr549       O550   1.769   1_455  S
O551       Cr569   1.961   1_554  S
O551        C559   1.261       .  A
O552       Cr569   1.987   1_455  S
O552        C553   1.262       .  A
C553        O554   1.266   1_556  A
C553        C877   1.471   1_556  S
O554       Cr570   1.995   1_554  S
O555       Cr570   2.020   1_554  S
O555        C556   1.269       .  A
C556        O557   1.260       .  A
C556        C838   1.487       .  S
O557       Cr571   1.970       .  S
O558       Cr571   2.001   1_655  S
O558        C559   1.267       .  A
C559        C982   1.473       .  S
O560       Cr569   1.997       .  S
O560        C568   1.260       .  A
O561       Cr569   1.976       .  S
O561        C562   1.263   1_655  A
C562        O563   1.266       .  A
C562       C1006   1.471       .  S
O563       Cr570   1.992       .  S
O564       Cr570   1.981       .  S
O564        C565   1.260       .  A
C565        O566   1.264       .  A
C565       C2686   1.482       .  S
O566       Cr571   1.991   1_556  S
O567       Cr571   1.986   1_656  S
O567        C568   1.258       .  A
C568        C934   1.481       .  S
Cr569       O572   1.767   1_655  S
Cr570       O572   1.767       .  S
Cr571       O572   1.762   1_554  S
O573       Cr591   2.002       .  S
O573        C581   1.267       .  A
O574       Cr591   1.975       .  S
O574        C575   1.261       .  A
C575        O576   1.267       .  A
C575        C862   1.491       .  S
O576       Cr592   2.016       .  S
O577       Cr592   2.002       .  S
O577        C578   1.266       .  A
C578        O579   1.261       .  A
C578        C805   1.468       .  S
O579       Cr593   1.986       .  S
O580       Cr593   1.965       .  S
O580        C581   1.261       .  A
C581       C2437   1.473       .  S
O582       Cr591   1.978       .  S
O582        C590   1.256       .  A
O583       Cr591   1.991       .  S
O583        C584   1.263       .  A
C584        O585   1.262       .  A
C584       C1117   1.479       .  S
O585       Cr592   1.981       .  S
O586       Cr592   2.001       .  S
O586        C587   1.267       .  A
C587        O588   1.264       .  A
C587       C2422   1.470       .  S
O588       Cr593   1.979       .  S
O589       Cr593   2.000       .  S
O589        C590   1.261       .  A
C590       C2854   1.480       .  S
Cr591       O594   1.765       .  S
Cr592       O594   1.765       .  S
Cr593       O594   1.767       .  S
O595       Cr613   1.982       .  S
O595        C603   1.265       .  A
O596       Cr613   1.972       .  S
O596        C597   1.258       .  A
C597        O598   1.269       .  A
C597        C814   1.489       .  S
O598       Cr614   2.016       .  S
O599       Cr614   2.029       .  S
O599        C600   1.271       .  A
C600        O601   1.258       .  A
C600        C790   1.493       .  S
O601       Cr615   1.966       .  S
O602       Cr615   1.994       .  S
O602        C603   1.267       .  A
C603       C2302   1.478       .  S
O604       Cr613   1.990       .  S
O604        C612   1.258       .  A
O605       Cr613   1.974       .  S
O605        C606   1.266       .  A
C606        O607   1.271       .  A
C606       C2278   1.477       .  S
O607       Cr614   2.006       .  S
O608       Cr614   1.984       .  S
O608        C609   1.260       .  A
C609        O610   1.261       .  A
C609       C1414   1.472       .  S
O610       Cr615   1.987       .  S
O611       Cr615   1.989       .  S
O611        C612   1.259       .  A
C612       C2221   1.478       .  S
Cr613       O616   1.763       .  S
Cr614       O616   1.768       .  S
Cr615       O616   1.760       .  S
O617       Cr635   2.001       .  S
O617        C625   1.267       .  A
O618       Cr635   1.966       .  S
O618        C619   1.259       .  A
C619        O620   1.272       .  A
C619        C733   1.490       .  S
O620       Cr636   2.032       .  S
O621       Cr636   2.016       .  S
O621        C622   1.269       .  A
C622        O623   1.257       .  A
C622        C766   1.493       .  S
O623       Cr637   1.974       .  S
O624       Cr637   1.974       .  S
O624        C625   1.266       .  A
C625       C1270   1.478       .  S
O626       Cr635   1.993       .  S
O626        C634   1.258       .  A
O627       Cr635   1.989       .  S
O627        C628   1.262       .  A
C628        O629   1.259       .  A
C628       C2566   1.477       .  S
O629       Cr636   1.979       .  S
O630       Cr636   2.007       .  S
O630        C631   1.271       .  A
C631        O632   1.265       .  A
C631       C1285   1.477       .  S
O632       Cr637   1.973       .  S
O633       Cr637   1.987       .  S
O633        C634   1.257       .  A
C634        C910   1.477       .  S
Cr635       O638   1.765       .  S
Cr636       O638   1.770       .  S
Cr637       O638   1.764       .  S
O639       Cr657   1.953       .  S
O639        C647   1.261       .  A
O640       Cr657   1.986       .  S
O640        C641   1.261       .  A
C641        O642   1.268       .  A
C641        C757   1.472       .  S
O642       Cr658   2.002       .  S
O643       Cr658   2.021       .  S
O643        C644   1.269       .  A
C644        O645   1.262       .  A
C644        C781   1.493       .  S
O645       Cr659   1.981       .  S
O646       Cr659   2.000       .  S
O646        C647   1.269       .  A
C647       C1366   1.467       .  S
O648       Cr657   1.984       .  S
O648        C656   1.256       .  A
O649       Cr657   1.979       .  S
O649        C650   1.262       .  A
C650        O651   1.267       .  A
C650       C1390   1.475       .  S
O651       Cr658   1.997       .  S
O652       Cr658   1.972       .  S
O652        C653   1.259       .  A
C653        O654   1.262       .  A
C653       C2326   1.468       .  S
O654       Cr659   1.989       .  S
O655       Cr659   1.988       .  S
O655        C656   1.257       .  A
C656       C1174   1.476       .  S
Cr657       O660   1.766       .  S
Cr658       O660   1.767       .  S
Cr659       O660   1.765       .  S
O661       Cr679   1.966       .  S
O661        C669   1.261       .  A
O662       Cr679   1.978       .  S
O662        C663   1.259       .  A
C663        O664   1.268       .  A
C663        C718   1.481       .  S
O664       Cr680   2.015       .  S
O665       Cr680   2.013       .  S
O665        C666   1.266       .  A
C666        O667   1.259       .  A
C666        C829   1.490       .  S
O667       Cr681   1.974       .  S
O668       Cr681   2.006       .  S
O668        C669   1.270       .  A
C669       C2638   1.479       .  S
O670       Cr679   2.000       .  S
O670        C678   1.260       .  A
O671       Cr679   1.976       .  S
O671        C672   1.267       .  A
C672        O673   1.268       .  A
C672       C2662   1.479       .  S
O673       Cr680   2.004       .  S
O674       Cr680   1.982       .  S
O674        C675   1.264       .  A
C675        O676   1.266       .  A
C675       C1030   1.481       .  S
O676       Cr681   2.000       .  S
O677       Cr681   1.992       .  S
O677        C678   1.259       .  A
C678       C2965   1.492       .  S
Cr679       O682   1.768       .  S
Cr680       O682   1.772       .  S
Cr681       O682   1.767       .  S
O683       Cr701   1.955       .  S
O683        C691   1.258       .  A
O684       Cr701   2.001       .  S
O684        C685   1.267       .  A
C685        O686   1.269       .  A
C685        C742   1.478       .  S
O686       Cr702   1.998       .  S
O687       Cr702   2.032       .  S
O687        C688   1.267       .  A
C688        O689   1.250       .  A
C688        C709   1.483       .  S
O689       Cr703   1.960       .  S
O690       Cr703   2.016       .  S
O690        C691   1.269       .  A
C691       C2518   1.476       .  S
O692       Cr701   2.005       .  S
O692        C700   1.263       .  A
O693       Cr701   1.973       .  S
O693        C694   1.260       .  A
C694        O695   1.269       .  A
C694       C1318   1.482       .  S
O695       Cr702   2.016       .  S
O696       Cr702   1.960       .  S
O696        C697   1.261       .  A
C697        O698   1.271       .  A
C697       C2542   1.479       .  S
O698       Cr703   2.024       .  S
O699       Cr703   1.961       .  S
O699        C700   1.253       .  A
C700       C2134   1.482       .  S
Cr701       O704   1.766       .  S
Cr702       O704   1.777       .  S
Cr703       O704   1.767       .  S
C705        C706   1.403       .  A
C705        C710   1.403       .  A
C705        H715   1.084       .  S
C706        C711   1.488       .  S
C706        C707   1.410       .  A
C707        C708   1.405       .  A
C707        O712   1.373       .  S
C708        C709   1.407       .  A
C708        H713   1.084       .  S
C709        C710   1.410       .  A
C710        O714   1.372       .  S
C711        C716   1.405       .  A
C711        C720   1.411       .  A
O712        H728   0.992       .  S
O714        H725   0.992       .  S
C716        C717   1.395       .  A
C716        O721   1.372       .  S
C717        C718   1.407       .  A
C717        H722   1.084       .  S
C718        C719   1.407       .  A
C719        C720   1.409       .  A
C719        O723   1.371       .  S
C720        H724   1.083       .  S
O721        H726   0.992       .  S
O723        H727   0.992       .  S
C729        C730   1.401       .  A
C729        C734   1.403       .  A
C729        H739   1.084       .  S
C730        C735   1.486       .  S
C730        C731   1.407       .  A
C731        C732   1.406       .  A
C731        O736   1.372       .  S
C732        C733   1.408       .  A
C732        H737   1.083       .  S
C733        C734   1.414       .  A
C734        O738   1.373       .  S
C735        C740   1.409       .  A
C735        C744   1.405       .  A
O736        H752   0.992       .  S
O738        H749   0.991       .  S
C740        C741   1.400       .  A
C740        O745   1.372       .  S
C741        C742   1.404       .  A
C741        H746   1.084       .  S
C742        C743   1.409       .  A
C743        C744   1.407       .  A
C743        O747   1.371       .  S
C744        H748   1.083       .  S
O745        H750   0.992       .  S
O747        H751   0.992       .  S
C753        C754   1.409       .  A
C753        C758   1.404       .  A
C753        H763   1.083       .  S
C754        C759   1.490   1_565  S
C754        C755   1.408       .  A
C755        C756   1.399       .  A
C755        O760   1.372       .  S
C756        C757   1.403       .  A
C756        H761   1.080       .  S
C757        C758   1.405       .  A
C758        O762   1.372       .  S
C759        C764   1.403       .  A
C759        C768   1.410       .  A
O760        H776   0.992       .  S
O762        H773   0.992       .  S
C764        C765   1.397       .  A
C764        O769   1.373       .  S
C765        C766   1.413       .  A
C765        H770   1.083       .  S
C766        C767   1.409       .  A
C767        C768   1.409       .  A
C767        O771   1.371       .  S
C768        H772   1.083       .  S
O769        H774   0.992       .  S
O771        H775   0.992       .  S
C777        C778   1.404       .  A
C777        C782   1.404       .  A
C777        H787   1.084       .  S
C778        C783   1.488       .  S
C778        C779   1.407       .  A
C779        C780   1.404       .  A
C779        O784   1.371       .  S
C780        C781   1.410       .  A
C780        H785   1.083       .  S
C781        C782   1.413       .  A
C782        O786   1.371       .  S
C783        C788   1.408       .  A
C783        C792   1.402       .  A
O784        H800   0.992       .  S
O786        H797   0.992       .  S
C788        C789   1.406       .  A
C788        O793   1.371       .  S
C789        C790   1.409       .  A
C789        H794   1.083       .  S
C790        C791   1.416       .  A
C791        C792   1.402       .  A
C791        O795   1.373       .  S
C792        H796   1.084       .  S
O793        H798   0.992       .  S
O795        H799   0.992       .  S
C801        C802   1.406       .  A
C801        C806   1.405       .  A
C801        H811   1.083       .  S
C802        C807   1.477       .  S
C802        C803   1.403       .  A
C803        C804   1.397       .  A
C803        O808   1.371       .  S
C804        C805   1.404       .  A
C804        H809   1.083       .  S
C805        C806   1.406       .  A
C806        O810   1.371       .  S
C807        C812   1.398       .  A
C807        C816   1.407       .  A
O808        H824   0.992       .  S
O810        H821   0.991       .  S
C812        C813   1.393       .  A
C812        O817   1.372       .  S
C813        C814   1.413       .  A
C813        H818   1.083       .  S
C814        C815   1.410       .  A
C815        C816   1.408       .  A
C815        O819   1.371       .  S
C816        H820   1.083       .  S
O817        H822   0.992       .  S
O819        H823   0.992       .  S
C825        C826   1.401       .  A
C825        C830   1.403       .  A
C825        H835   1.084       .  S
C826        C831   1.482       .  S
C826        C827   1.407       .  A
C827        C828   1.401       .  A
C827        O832   1.372       .  S
C828        C829   1.408       .  A
C828        H833   1.084       .  S
C829        C830   1.416       .  A
C830        O834   1.371       .  S
C831        C836   1.407       .  A
C831        C840   1.402       .  A
O832        H848   0.992       .  S
O834        H845   0.992       .  S
C836        C837   1.398       .  A
C836        O841   1.372       .  S
C837        C838   1.407       .  A
C837        H842   1.084       .  S
C838        C839   1.415       .  A
C839        C840   1.404       .  A
C839        O843   1.371       .  S
C840        H844   1.083       .  S
O841        H846   0.992       .  S
O843        H847   0.992       .  S
C849        C850   1.404       .  A
C849        C854   1.401       .  A
C849        H859   1.084       .  S
C850        C855   1.484       .  S
C850        C851   1.406       .  A
C851        C852   1.403       .  A
C851        O856   1.373       .  S
C852        C853   1.407       .  A
C852        H857   1.083   1_556  S
C853        C854   1.414       .  A
C854        O858   1.372       .  S
C855        C860   1.408       .  A
C855        C864   1.401       .  A
O856        H872   0.992       .  S
O858        H869   0.992       .  S
C860        C861   1.402       .  A
C860        O865   1.372       .  S
C861        C862   1.407       .  A
C861        H866   1.084       .  S
C862        C863   1.417       .  A
C863        C864   1.403       .  A
C863        O867   1.371       .  S
C864        H868   1.084       .  S
O865        H870   0.992       .  S
O867        H871   0.992       .  S
C873        C874   1.408   1_556  A
C873        C878   1.404       .  A
C873        H883   1.083       .  S
C874        C879   1.486       .  S
C874        C875   1.408       .  A
C875        C876   1.397       .  A
C875        O880   1.372   1_455  S
C876        C877   1.403       .  A
C876        H881   1.083   1_455  S
C877        C878   1.407   1_554  A
C878        O882   1.371       .  S
C879        C884   1.403       .  A
C879        C888   1.409   1_455  A
O880        H896   0.992       .  S
O882        H893   0.992       .  S
C884        C885   1.395       .  A
C884        O889   1.372       .  S
C885        C886   1.412   1_455  A
C885        H890   1.083       .  S
C886        C887   1.408       .  A
C887        C888   1.406       .  A
C887        O891   1.371   1_554  S
C888        H892   1.083   1_554  S
O889        H894   0.992       .  S
O891        H895   0.992       .  S
C897        C898   1.401       .  A
C897        C902   1.395       .  A
C897        H907   1.084       .  S
C898        C903   1.478       .  S
C898        C899   1.409       .  A
C899        C900   1.401       .  A
C899        O904   1.373       .  S
C900        C901   1.405       .  A
C900        H905   1.084       .  S
C901        C902   1.411       .  A
C902        O906   1.372       .  S
C903        C908   1.406       .  A
C903        C912   1.406       .  A
O904        H920   0.992       .  S
O906        H917   0.992       .  S
C908        C909   1.393       .  A
C908        O913   1.372       .  S
C909        C910   1.406       .  A
C909        H914   1.084       .  S
C910        C911   1.409       .  A
C911        C912   1.401       .  A
C911        O915   1.371       .  S
C912        H916   1.084       .  S
O913        H918   0.992       .  S
O915        H919   0.992       .  S
C921        C922   1.403       .  A
C921        C926   1.399       .  A
C921        H931   1.084       .  S
C922        C927   1.478       .  S
C922        C923   1.408       .  A
C923        C924   1.399       .  A
C923        O928   1.371       .  S
C924        C925   1.403       .  A
C924        H929   1.084       .  S
C925        C926   1.409       .  A
C926        O930   1.372       .  S
C927        C932   1.407       .  A
C927        C936   1.400       .  A
O928        H944   0.992       .  S
O930        H941   0.992       .  S
C932        C933   1.401       .  A
C932        O937   1.372       .  S
C933        C934   1.406       .  A
C933        H938   1.084       .  S
C934        C935   1.413       .  A
C935        C936   1.398       .  A
C935        O939   1.372       .  S
C936        H940   1.084       .  S
O937        H942   0.992       .  S
O939        H943   0.992       .  S
C945        C946   1.404       .  A
C945        C950   1.395       .  A
C945        H955   1.084       .  S
C946        C951   1.482       .  S
C946        C947   1.412       .  A
C947        C948   1.401       .  A
C947        O952   1.373       .  S
C948        C949   1.400       .  A
C948        H953   1.084       .  S
C949        C950   1.405       .  A
C950        O954   1.371       .  S
C951        C956   1.405       .  A
C951        C960   1.410       .  A
O952        H968   0.992       .  S
O954        H965   0.992       .  S
C956        C957   1.391       .  A
C956        O961   1.372       .  S
C957        C958   1.407       .  A
C957        H962   1.084       .  S
C958        C959   1.405       .  A
C959        C960   1.402       .  A
C959        O963   1.371       .  S
C960        H964   1.083       .  S
O961        H966   0.992       .  S
O963        H967   0.992       .  S
C969        C970   1.397   1_655  A
C969        C974   1.388       .  A
C969        H979   1.084       .  S
C970        C975   1.467   1_455  S
C970        C971   1.405       .  A
C971        C972   1.400       .  A
C971        O976   1.372       .  S
C972        C973   1.407       .  A
C972        H977   1.084       .  S
C973        C974   1.413   1_455  A
C974        O978   1.372       .  S
C975        C980   1.405       .  A
C975        C984   1.399   1_655  A
O976        H992   0.992       .  S
O978        H989   0.992       .  S
C980        C981   1.397       .  A
C980        O985   1.372       .  S
C981        C982   1.407       .  A
C981        H986   1.083       .  S
C982        C983   1.412       .  A
C983        C984   1.390   1_655  A
C983        O987   1.372       .  S
C984        H988   1.084       .  S
O985        H990   0.992       .  S
O987        H991   0.992       .  S
C993        C994   1.400       .  A
C993        C998   1.393       .  A
C993       H1003   1.083       .  S
C994        C999   1.471       .  S
C994        C995   1.407       .  A
C995        C996   1.394       .  A
C995       O1000   1.372       .  S
C996        C997   1.404       .  A
C996       H1001   1.084       .  S
C997        C998   1.411       .  A
C998       O1002   1.372       .  S
C999       C1004   1.404       .  A
C999       C1008   1.404   1_455  A
O1000      H1016   0.992       .  S
O1002      H1013   0.992       .  S
C1004      C1005   1.391       .  A
C1004      O1009   1.373       .  S
C1005      C1006   1.406       .  A
C1005      H1010   1.084       .  S
C1006      C1007   1.410   1_455  A
C1007      C1008   1.397       .  A
C1007      O1011   1.372       .  S
C1008      H1012   1.084       .  S
O1009      H1014   0.992       .  S
O1011      H1015   0.992       .  S
C1017      C1018   1.404       .  A
C1017      C1022   1.402       .  A
C1017      H1027   1.084       .  S
C1018      C1023   1.480       .  S
C1018      C1019   1.405       .  A
C1019      C1020   1.397       .  A
C1019      O1024   1.373       .  S
C1020      C1021   1.407       .  A
C1020      H1025   1.083       .  S
C1021      C1022   1.411       .  A
C1022      O1026   1.372       .  S
C1023      C1028   1.408       .  A
C1023      C1032   1.402       .  A
O1024      H1040   0.992       .  S
O1026      H1037   0.992       .  S
C1028      C1029   1.399       .  A
C1028      O1033   1.371       .  S
C1029      C1030   1.405       .  A
C1029      H1034   1.084       .  S
C1030      C1031   1.413       .  A
C1031      C1032   1.399       .  A
C1031      O1035   1.372       .  S
C1032      H1036   1.084       .  S
O1033      H1038   0.992       .  S
O1035      H1039   0.992       .  S
C1041      C1042   1.402       .  A
C1041      C1046   1.406       .  A
C1041      H1051   1.084       .  S
C1042      C1047   1.482       .  S
C1042      C1043   1.406       .  A
C1043      C1044   1.399       .  A
C1043      O1048   1.372       .  S
C1044      C1045   1.408       .  A
C1044      H1049   1.084       .  S
C1045      C1046   1.416       .  A
C1046      O1050   1.372       .  S
C1047      C1052   1.404       .  A
C1047      C1056   1.404       .  A
O1048      H1064   0.992       .  S
O1050      H1061   0.992       .  S
C1052      C1053   1.398       .  A
C1052      O1057   1.371       .  S
C1053      C1054   1.409       .  A
C1053      H1058   1.083       .  S
C1054      C1055   1.412       .  A
C1055      C1056   1.404       .  A
C1055      O1059   1.372       .  S
C1056      H1060   1.084       .  S
O1057      H1062   0.991       .  S
O1059      H1063   0.992       .  S
C1065      C1066   1.398       .  A
C1065      C1070   1.396       .  A
C1065      H1075   1.084       .  S
C1066      C1071   1.464       .  S
C1066      C1067   1.404       .  A
C1067      C1068   1.396       .  A
C1067      O1072   1.372       .  S
C1068      C1069   1.402       .  A
C1068      H1073   1.084       .  S
C1069      C1070   1.411       .  A
C1070      O1074   1.372       .  S
C1071      C1076   1.400       .  A
C1071      C1080   1.400   1_455  A
O1072      H1088   0.992       .  S
O1074      H1085   0.992       .  S
C1076      C1077   1.392       .  A
C1076      O1081   1.372       .  S
C1077      C1078   1.408       .  A
C1077      H1082   1.083       .  S
C1078      C1079   1.413   1_455  A
C1079      C1080   1.399       .  A
C1079      O1083   1.371       .  S
C1080      H1084   1.084       .  S
O1081      H1086   0.992       .  S
O1083      H1087   0.992       .  S
C1089      C1090   1.397       .  A
C1089      C1094   1.392       .  A
C1089      H1099   1.084       .  S
C1090      C1095   1.473       .  S
C1090      C1091   1.409   1_655  A
C1091      C1092   1.401       .  A
C1091      O1096   1.373       .  S
C1092      C1093   1.404   1_455  A
C1092      H1097   1.083       .  S
C1093      C1094   1.414       .  A
C1094      O1098   1.372       .  S
C1095      C1100   1.405   1_655  A
C1095      C1104   1.403       .  A
O1096      H1112   0.992       .  S
O1098      H1109   0.992       .  S
C1100      C1101   1.394   1_455  A
C1100      O1105   1.372       .  S
C1101      C1102   1.407       .  A
C1101      H1106   1.083   1_655  S
C1102      C1103   1.410       .  A
C1103      C1104   1.396       .  A
C1103      O1107   1.371       .  S
C1104      H1108   1.084       .  S
O1105      H1110   0.992   1_455  S
O1107      H1111   0.992       .  S
C1113      C1114   1.400       .  A
C1113      C1118   1.395       .  A
C1113      H1123   1.084       .  S
C1114      C1119   1.476       .  S
C1114      C1115   1.407       .  A
C1115      C1116   1.399       .  A
C1115      O1120   1.372       .  S
C1116      C1117   1.406       .  A
C1116      H1121   1.084       .  S
C1117      C1118   1.413       .  A
C1118      O1122   1.372       .  S
C1119      C1124   1.407       .  A
C1119      C1128   1.399       .  A
O1120      H1136   0.992       .  S
O1122      H1133   0.992       .  S
C1124      C1125   1.400       .  A
C1124      O1129   1.372       .  S
C1125      C1126   1.406       .  A
C1125      H1130   1.083       .  S
C1126      C1127   1.415       .  A
C1127      C1128   1.396       .  A
C1127      O1131   1.372       .  S
C1128      H1132   1.084       .  S
O1129      H1134   0.992       .  S
O1131      H1135   0.992       .  S
C1137      C1138   1.410   1_655  A
C1137      C1142   1.412       .  A
C1137      H1147   1.083       .  S
C1138      C1143   1.493       .  S
C1138      C1139   1.402       .  A
C1139      C1140   1.398       .  A
C1139      O1144   1.372       .  S
C1140      C1141   1.414   1_455  A
C1140      H1145   1.083       .  S
C1141      C1142   1.411       .  A
C1142      O1146   1.371       .  S
C1143      C1148   1.406       .  A
C1143      C1152   1.409       .  A
O1144      H1160   0.992       .  S
O1146      H1157   0.992       .  S
C1148      C1149   1.401       .  A
C1148      O1153   1.371   1_455  S
C1149      C1150   1.407       .  A
C1149      H1154   1.084   1_455  S
C1150      C1151   1.408       .  A
C1151      C1152   1.410       .  A
C1151      O1155   1.371       .  S
C1152      H1156   1.083       .  S
O1153      H1158   0.992       .  S
O1155      H1159   0.992       .  S
C1161      C1162   1.400       .  A
C1161      C1166   1.397       .  A
C1161      H1171   1.084       .  S
C1162      C1167   1.470       .  S
C1162      C1163   1.408       .  A
C1163      C1164   1.395       .  A
C1163      O1168   1.373       .  S
C1164      C1165   1.400       .  A
C1164      H1169   1.084       .  S
C1165      C1166   1.408       .  A
C1166      O1170   1.372       .  S
C1167      C1172   1.402       .  A
C1167      C1176   1.402       .  A
O1168      H1184   0.992       .  S
O1170      H1181   0.992       .  S
C1172      C1173   1.392       .  A
C1172      O1177   1.372       .  S
C1173      C1174   1.407       .  A
C1173      H1178   1.084       .  S
C1174      C1175   1.411       .  A
C1175      C1176   1.400       .  A
C1175      O1179   1.372       .  S
C1176      H1180   1.084       .  S
O1177      H1182   0.992       .  S
O1179      H1183   0.992       .  S
C1185      C1186   1.406       .  A
C1185      C1190   1.400       .  A
C1185      H1195   1.083       .  S
C1186      C1191   1.491       .  S
C1186      C1187   1.410       .  A
C1187      C1188   1.403       .  A
C1187      O1192   1.371       .  S
C1188      C1189   1.407       .  A
C1188      H1193   1.084       .  S
C1189      C1190   1.411       .  A
C1190      O1194   1.372       .  S
C1191      C1196   1.409       .  A
C1191      C1200   1.406       .  A
O1192      H1208   0.992       .  S
O1194      H1205   0.992       .  S
C1196      C1197   1.402       .  A
C1196      O1201   1.371       .  S
C1197      C1198   1.407       .  A
C1197      H1202   1.083       .  S
C1198      C1199   1.412       .  A
C1199      C1200   1.403       .  A
C1199      O1203   1.372       .  S
C1200      H1204   1.083       .  S
O1201      H1206   0.992       .  S
O1203      H1207   0.992       .  S
C1209      C1210   1.399       .  A
C1209      C1214   1.399       .  A
C1209      H1219   1.084       .  S
C1210      C1215   1.466       .  S
C1210      C1211   1.403       .  A
C1211      C1212   1.392       .  A
C1211      O1216   1.372       .  S
C1212      C1213   1.405       .  A
C1212      H1217   1.084       .  S
C1213      C1214   1.413       .  A
C1214      O1218   1.372       .  S
C1215      C1220   1.404       .  A
C1215      C1224   1.396       .  A
O1216      H1232   0.992       .  S
O1218      H1229   0.992       .  S
C1220      C1221   1.397       .  A
C1220      O1225   1.371       .  S
C1221      C1222   1.406       .  A
C1221      H1226   1.083       .  S
C1222      C1223   1.417       .  A
C1223      C1224   1.394       .  A
C1223      O1227   1.372       .  S
C1224      H1228   1.084       .  S
O1225      H1230   0.992       .  S
O1227      H1231   0.992       .  S
C1233      C1234   1.407       .  A
C1233      C1238   1.404       .  A
C1233      H1243   1.084       .  S
C1234      C1239   1.477       .  S
C1234      C1235   1.403       .  A
C1235      C1236   1.393       .  A
C1235      O1240   1.373       .  S
C1236      C1237   1.406       .  A
C1236      H1241   1.084       .  S
C1237      C1238   1.406       .  A
C1238      O1242   1.371       .  S
C1239      C1244   1.407       .  A
C1239      C1248   1.403       .  A
O1240      H1256   0.992       .  S
O1242      H1253   0.992       .  S
C1244      C1245   1.397       .  A
C1244      O1249   1.372       .  S
C1245      C1246   1.404       .  A
C1245      H1250   1.084       .  S
C1246      C1247   1.409       .  A
C1247      C1248   1.399       .  A
C1247      O1251   1.372       .  S
C1248      H1252   1.084       .  S
O1249      H1254   0.992       .  S
O1251      H1255   0.992       .  S
C1257      C1258   1.397       .  A
C1257      C1262   1.393       .  A
C1257      H1267   1.084       .  S
C1258      C1263   1.469       .  S
C1258      C1259   1.407       .  A
C1259      C1260   1.399       .  A
C1259      O1264   1.371       .  S
C1260      C1261   1.403       .  A
C1260      H1265   1.084       .  S
C1261      C1262   1.412       .  A
C1262      O1266   1.373       .  S
C1263      C1268   1.404       .  A
C1263      C1272   1.399       .  A
O1264      H1280   0.992       .  S
O1266      H1277   0.992       .  S
C1268      C1269   1.397       .  A
C1268      O1273   1.372       .  S
C1269      C1270   1.406       .  A
C1269      H1274   1.083       .  S
C1270      C1271   1.415       .  A
C1271      C1272   1.396       .  A
C1271      O1275   1.373       .  S
C1272      H1276   1.084       .  S
O1273      H1278   0.992       .  S
O1275      H1279   0.991       .  S
C1281      C1282   1.401       .  A
C1281      C1286   1.398       .  A
C1281      H1291   1.084       .  S
C1282      C1287   1.469       .  S
C1282      C1283   1.402       .  A
C1283      C1284   1.396       .  A
C1283      O1288   1.372       .  S
C1284      C1285   1.408       .  A
C1284      H1289   1.083       .  S
C1285      C1286   1.412       .  A
C1286      O1290   1.372       .  S
C1287      C1292   1.407       .  A
C1287      C1296   1.400       .  A
O1288      H1304   0.992       .  S
O1290      H1301   0.992       .  S
C1292      C1293   1.398       .  A
C1292      O1297   1.371       .  S
C1293      C1294   1.401       .  A
C1293      H1298   1.084       .  S
C1294      C1295   1.408       .  A
C1295      C1296   1.395       .  A
C1295      O1299   1.373       .  S
C1296      H1300   1.084       .  S
O1297      H1302   0.992       .  S
O1299      H1303   0.992       .  S
C1305      C1306   1.401       .  A
C1305      C1310   1.394       .  A
C1305      H1315   1.084       .  S
C1306      C1311   1.478       .  S
C1306      C1307   1.408       .  A
C1307      C1308   1.403       .  A
C1307      O1312   1.371       .  S
C1308      C1309   1.405       .  A
C1308      H1313   1.084       .  S
C1309      C1310   1.410       .  A
C1310      O1314   1.372       .  S
C1311      C1316   1.407       .  A
C1311      C1320   1.401       .  A
O1312      H1328   0.992       .  S
O1314      H1325   0.992       .  S
C1316      C1317   1.398       .  A
C1316      O1321   1.373       .  S
C1317      C1318   1.405       .  A
C1317      H1322   1.083       .  S
C1318      C1319   1.413       .  A
C1319      C1320   1.400       .  A
C1319      O1323   1.371       .  S
C1320      H1324   1.084       .  S
O1321      H1326   0.992       .  S
O1323      H1327   0.992       .  S
C1329      C1330   1.401       .  A
C1329      C1334   1.401       .  A
C1329      H1339   1.084       .  S
C1330      C1335   1.484       .  S
C1330      C1331   1.410       .  A
C1331      C1332   1.399       .  A
C1331      O1336   1.372       .  S
C1332      C1333   1.404       .  A
C1332      H1337   1.084       .  S
C1333      C1334   1.416       .  A
C1334      O1338   1.371       .  S
C1335      C1340   1.410       .  A
C1335      C1344   1.404       .  A
O1336      H1352   0.992       .  S
O1338      H1349   0.992       .  S
C1340      C1341   1.399       .  A
C1340      O1345   1.372       .  S
C1341      C1342   1.400       .  A
C1341      H1346   1.084       .  S
C1342      C1343   1.407       .  A
C1343      C1344   1.401       .  A
C1343      O1347   1.371   1_556  S
C1344      H1348   1.084       .  S
O1345      H1350   0.992       .  S
O1347      H1351   0.991       .  S
C1353      C1354   1.392       .  A
C1353      C1358   1.385       .  A
C1353      H1363   1.084       .  S
C1354      C1359   1.456       .  S
C1354      C1355   1.405       .  A
C1355      C1356   1.395       .  A
C1355      O1360   1.372       .  S
C1356      C1357   1.403       .  A
C1356      H1361   1.083       .  S
C1357      C1358   1.417       .  A
C1358      O1362   1.372       .  S
C1359      C1364   1.402       .  A
C1359      C1368   1.396       .  A
O1360      H1376   0.992       .  S
O1362      H1373   0.992       .  S
C1364      C1365   1.391       .  A
C1364      O1369   1.372       .  S
C1365      C1366   1.406       .  A
C1365      H1370   1.083       .  S
C1366      C1367   1.411       .  A
C1367      C1368   1.389       .  A
C1367      O1371   1.370       .  S
C1368      H1372   1.084       .  S
O1369      H1374   0.992       .  S
O1371      H1375   0.992       .  S
C1377      C1378   1.401       .  A
C1377      C1382   1.394       .  A
C1377      H1387   1.084       .  S
C1378      C1383   1.478       .  S
C1378      C1379   1.408       .  A
C1379      C1380   1.398       .  A
C1379      O1384   1.372       .  S
C1380      C1381   1.406       .  A
C1380      H1385   1.083       .  S
C1381      C1382   1.409       .  A
C1382      O1386   1.370       .  S
C1383      C1388   1.407       .  A
C1383      C1392   1.405       .  A
O1384      H1400   0.992       .  S
O1386      H1397   0.991       .  S
C1388      C1389   1.391       .  A
C1388      O1393   1.372       .  S
C1389      C1390   1.404       .  A
C1389      H1394   1.084       .  S
C1390      C1391   1.411       .  A
C1391      C1392   1.400       .  A
C1391      O1395   1.372       .  S
C1392      H1396   1.083       .  S
O1393      H1398   0.992       .  S
O1395      H1399   0.992       .  S
C1401      C1402   1.403       .  A
C1401      C1406   1.404       .  A
C1401      H1411   1.084       .  S
C1402      C1407   1.469       .  S
C1402      C1403   1.400       .  A
C1403      C1404   1.392       .  A
C1403      O1408   1.372       .  S
C1404      C1405   1.409       .  A
C1404      H1409   1.083       .  S
C1405      C1406   1.412       .  A
C1406      O1410   1.371       .  S
C1407      C1412   1.406       .  A
C1407      C1416   1.399       .  A
O1408      H1424   0.992       .  S
O1410      H1421   0.992   1_556  S
C1412      C1413   1.401       .  A
C1412      O1417   1.372       .  S
C1413      C1414   1.405       .  A
C1413      H1418   1.084       .  S
C1414      C1415   1.410       .  A
C1415      C1416   1.395       .  A
C1415      O1419   1.372       .  S
C1416      H1420   1.084       .  S
O1417      H1422   0.992       .  S
O1419      H1423   0.992       .  S
C1425      C1426   1.404       .  A
C1425      C1430   1.397       .  A
C1425      H1435   1.084       .  S
C1426      C1431   1.477       .  S
C1426      C1427   1.407       .  A
C1427      C1428   1.402       .  A
C1427      O1432   1.373       .  S
C1428      C1429   1.401       .  A
C1428      H1433   1.084       .  S
C1429      C1430   1.405       .  A
C1430      O1434   1.372       .  S
C1431      C1436   1.408       .  A
C1431      C1440   1.400       .  A
O1432      H1448   0.992       .  S
O1434      H1445   0.992       .  S
C1436      C1437   1.397       .  A
C1436      O1441   1.372       .  S
C1437      C1438   1.404       .  A
C1437      H1442   1.084       .  S
C1438      C1439   1.414       .  A
C1439      C1440   1.400       .  A
C1439      O1443   1.371       .  S
C1440      H1444   1.084       .  S
O1441      H1446   0.992       .  S
O1443      H1447   0.992       .  S
C1449      C1450   1.399       .  A
C1449      C1454   1.399       .  A
C1449      H1459   1.084       .  S
C1450      C1455   1.490   1_565  S
C1450      C1451   1.414       .  A
C1451      C1452   1.408       .  A
C1451      O1456   1.371   1_565  S
C1452      C1453   1.404       .  A
C1452      H1457   1.083       .  S
C1453      C1454   1.414       .  A
C1454      O1458   1.374       .  S
C1455      C1460   1.411       .  A
C1455      C1464   1.405   1_554  A
O1456      H1472   0.992       .  S
O1458      H1469   0.991       .  S
C1460      C1461   1.402       .  A
C1460      O1465   1.372       .  S
C1461      C1462   1.405       .  A
C1461      H1466   1.084       .  S
C1462      C1463   1.410   1_554  A
C1463      C1464   1.402       .  A
C1463      O1467   1.372       .  S
C1464      H1468   1.083       .  S
O1465      H1470   0.992       .  S
O1467      H1471   0.992       .  S
C1473      C1474   1.401       .  A
C1473      C1478   1.399       .  A
C1473      H1483   1.084       .  S
C1474      C1479   1.476   1_556  S
C1474      C1475   1.406       .  A
C1475      C1476   1.398       .  A
C1475      O1480   1.372       .  S
C1476      C1477   1.407       .  A
C1476      H1481   1.083       .  S
C1477      C1478   1.414       .  A
C1478      O1482   1.372       .  S
C1479      C1484   1.408       .  A
C1479      C1488   1.399       .  A
O1480      H1496   0.992       .  S
O1482      H1493   0.992       .  S
C1484      C1485   1.402       .  A
C1484      O1489   1.371       .  S
C1485      C1486   1.405       .  A
C1485      H1490   1.084       .  S
C1486      C1487   1.412       .  A
C1487      C1488   1.395       .  A
C1487      O1491   1.373       .  S
C1488      H1492   1.084       .  S
O1489      H1494   0.992       .  S
O1491      H1495   0.992       .  S
C1497      C1498   1.395       .  A
C1497      C1502   1.393       .  A
C1497      H1507   1.084       .  S
C1498      C1503   1.468       .  S
C1498      C1499   1.408       .  A
C1499      C1500   1.399       .  A
C1499      O1504   1.372       .  S
C1500      C1501   1.403       .  A
C1500      H1505   1.083       .  S
C1501      C1502   1.416       .  A
C1502      O1506   1.372       .  S
C1503      C1508   1.408       .  A
C1503      C1512   1.397       .  A
O1504      H1520   0.992       .  S
O1506      H1517   0.992       .  S
C1508      C1509   1.401       .  A
C1508      O1513   1.371       .  S
C1509      C1510   1.402       .  A
C1509      H1514   1.084       .  S
C1510      C1511   1.411       .  A
C1511      C1512   1.391       .  A
C1511      O1515   1.372       .  S
C1512      H1516   1.084       .  S
O1513      H1518   0.992       .  S
O1515      H1519   0.992       .  S
C1521      C1522   1.397       .  A
C1521      C1526   1.392       .  A
C1521      H1531   1.084       .  S
C1522      C1527   1.466       .  S
C1522      C1523   1.405       .  A
C1523      C1524   1.398       .  A
C1523      O1528   1.373       .  S
C1524      C1525   1.405       .  A
C1524      H1529   1.083       .  S
C1525      C1526   1.415       .  A
C1526      O1530   1.372       .  S
C1527      C1532   1.404       .  A
C1527      C1536   1.401       .  A
O1528      H1544   0.992       .  S
O1530      H1541   0.992       .  S
C1532      C1533   1.392       .  A
C1532      O1537   1.372       .  S
C1533      C1534   1.405       .  A
C1533      H1538   1.084       .  S
C1534      C1535   1.410       .  A
C1535      C1536   1.397       .  A
C1535      O1539   1.372       .  S
C1536      H1540   1.084       .  S
O1537      H1542   0.992       .  S
O1539      H1543   0.992       .  S
C1545      C1546   1.403       .  A
C1545      C1550   1.396       .  A
C1545      H1555   1.084       .  S
C1546      C1551   1.474       .  S
C1546      C1547   1.406       .  A
C1547      C1548   1.396       .  A
C1547      O1552   1.372       .  S
C1548      C1549   1.404       .  A
C1548      H1553   1.082       .  S
C1549      C1550   1.406       .  A
C1550      O1554   1.372       .  S
C1551      C1556   1.408       .  A
C1551      C1560   1.400       .  A
O1552      H1568   0.992       .  S
O1554      H1565   0.992       .  S
C1556      C1557   1.397       .  A
C1556      O1561   1.373       .  S
C1557      C1558   1.403       .  A
C1557      H1562   1.084       .  S
C1558      C1559   1.411       .  A
C1559      C1560   1.397       .  A
C1559      O1563   1.372       .  S
C1560      H1564   1.084       .  S
O1561      H1566   0.992       .  S
O1563      H1567   0.992       .  S
C1569      C1570   1.400       .  A
C1569      C1574   1.394       .  A
C1569      H1579   1.084       .  S
C1570      C1575   1.470   1_554  S
C1570      C1571   1.406       .  A
C1571      C1572   1.396       .  A
C1571      O1576   1.373       .  S
C1572      C1573   1.405       .  A
C1572      H1577   1.083       .  S
C1573      C1574   1.411       .  A
C1574      O1578   1.372       .  S
C1575      C1580   1.402       .  A
C1575      C1584   1.404       .  A
O1576      H1592   0.992       .  S
O1578      H1589   0.992       .  S
C1580      C1581   1.391       .  A
C1580      O1585   1.372       .  S
C1581      C1582   1.408       .  A
C1581      H1586   1.084       .  S
C1582      C1583   1.409       .  A
C1583      C1584   1.398       .  A
C1583      O1587   1.372       .  S
C1584      H1588   1.084       .  S
O1585      H1590   0.992       .  S
O1587      H1591   0.992       .  S
C1593      C1594   1.400       .  A
C1593      C1598   1.398       .  A
C1593      H1603   1.084       .  S
C1594      C1599   1.480       .  S
C1594      C1595   1.408       .  A
C1595      C1596   1.402       .  A
C1595      O1600   1.372       .  S
C1596      C1597   1.409       .  A
C1596      H1601   1.083       .  S
C1597      C1598   1.415       .  A
C1598      O1602   1.371       .  S
C1599      C1604   1.408       .  A
C1599      C1608   1.400       .  A
O1600      H1616   0.992       .  S
O1602      H1613   0.992       .  S
C1604      C1605   1.402       .  A
C1604      O1609   1.372       .  S
C1605      C1606   1.406       .  A
C1605      H1610   1.083       .  S
C1606      C1607   1.416       .  A
C1607      C1608   1.397       .  A
C1607      O1611   1.372       .  S
C1608      H1612   1.084       .  S
O1609      H1614   0.992       .  S
O1611      H1615   0.992       .  S
C1617      C1618   1.406       .  A
C1617      C1622   1.402       .  A
C1617      H1627   1.083       .  S
C1618      C1623   1.491       .  S
C1618      C1619   1.410       .  A
C1619      C1620   1.403       .  A
C1619      O1624   1.373       .  S
C1620      C1621   1.406       .  A
C1620      H1625   1.084       .  S
C1621      C1622   1.411       .  A
C1622      O1626   1.371       .  S
C1623      C1628   1.416       .  A
C1623      C1632   1.400       .  A
O1624      H1640   0.992       .  S
O1626      H1637   0.992       .  S
C1628      C1629   1.408       .  A
C1628      O1633   1.371       .  S
C1629      C1630   1.402       .  A
C1629      H1634   1.083       .  S
C1630      C1631   1.413       .  A
C1631      C1632   1.397       .  A
C1631      O1635   1.372       .  S
C1632      H1636   1.084       .  S
O1633      H1638   0.992       .  S
O1635      H1639   0.991       .  S
C1641      C1642   1.403       .  A
C1641      C1646   1.400       .  A
C1641      H1651   1.084       .  S
C1642      C1647   1.481       .  S
C1642      C1643   1.409       .  A
C1643      C1644   1.400       .  A
C1643      O1648   1.372       .  S
C1644      C1645   1.405       .  A
C1644      H1649   1.084       .  S
C1645      C1646   1.412       .  A
C1646      O1650   1.372       .  S
C1647      C1652   1.409       .  A
C1647      C1656   1.403       .  A
O1648      H1664   0.992       .  S
O1650      H1661   0.992       .  S
C1652      C1653   1.403       .  A
C1652      O1657   1.371       .  S
C1653      C1654   1.403       .  A
C1653      H1658   1.084       .  S
C1654      C1655   1.406       .  A
C1655      C1656   1.395       .  A
C1655      O1659   1.372       .  S
C1656      H1660   1.084       .  S
O1657      H1662   0.991       .  S
O1659      H1663   0.992       .  S
C1665      C1666   1.404       .  A
C1665      C1670   1.404       .  A
C1665      H1675   1.083       .  S
C1666      C1671   1.486       .  S
C1666      C1667   1.407       .  A
C1667      C1668   1.399       .  A
C1667      O1672   1.372       .  S
C1668      C1669   1.408       .  A
C1668      H1673   1.083       .  S
C1669      C1670   1.415       .  A
C1670      O1674   1.372       .  S
C1671      C1676   1.405       .  A
C1671      C1680   1.406       .  A
O1672      H1688   0.992       .  S
O1674      H1685   0.992       .  S
C1676      C1677   1.398       .  A
C1676      O1681   1.372       .  S
C1677      C1678   1.409       .  A
C1677      H1682   1.083       .  S
C1678      C1679   1.413       .  A
C1679      C1680   1.405       .  A
C1679      O1683   1.371       .  S
C1680      H1684   1.083       .  S
O1681      H1686   0.992       .  S
O1683      H1687   0.992       .  S
C1689      C1690   1.399       .  A
C1689      C1694   1.398       .  A
C1689      H1699   1.084       .  S
C1690      C1695   1.473       .  S
C1690      C1691   1.405       .  A
C1691      C1692   1.398       .  A
C1691      O1696   1.373       .  S
C1692      C1693   1.405       .  A
C1692      H1697   1.083       .  S
C1693      C1694   1.415       .  A
C1694      O1698   1.372       .  S
C1695      C1700   1.406       .  A
C1695      C1704   1.401       .  A
O1696      H1712   0.992       .  S
O1698      H1709   0.992       .  S
C1700      C1701   1.393       .  A
C1700      O1705   1.372       .  S
C1701      C1702   1.403       .  A
C1701      H1706   1.083       .  S
C1702      C1703   1.413       .  A
C1703      C1704   1.401       .  A
C1703      O1707   1.372       .  S
C1704      H1708   1.084       .  S
O1705      H1710   0.992       .  S
O1707      H1711   0.992       .  S
C1713      C1714   1.406       .  A
C1713      C1718   1.400       .  A
C1713      H1723   1.083       .  S
C1714      C1719   1.493       .  S
C1714      C1715   1.411       .  A
C1715      C1716   1.403       .  A
C1715      O1720   1.371       .  S
C1716      C1717   1.406       .  A
C1716      H1721   1.084       .  S
C1717      C1718   1.410       .  A
C1718      O1722   1.372       .  S
C1719      C1724   1.407       .  A
C1719      C1728   1.412       .  A
O1720      H1736   0.992       .  S
O1722      H1733   0.992       .  S
C1724      C1725   1.396       .  A
C1724      O1729   1.373       .  S
C1725      C1726   1.406       .  A
C1725      H1730   1.084       .  S
C1726      C1727   1.407       .  A
C1727      C1728   1.409       .  A
C1727      O1731   1.371       .  S
C1728      H1732   1.083       .  S
O1729      H1734   0.992       .  S
O1731      H1735   0.992       .  S
C1737      C1738   1.403       .  A
C1737      C1742   1.408       .  A
C1737      H1747   1.083       .  S
C1738      C1743   1.487       .  S
C1738      C1739   1.407       .  A
C1739      C1740   1.401       .  A
C1739      O1744   1.372       .  S
C1740      C1741   1.409       .  A
C1740      H1745   1.083       .  S
C1741      C1742   1.417       .  A
C1742      O1746   1.371       .  S
C1743      C1748   1.408       .  A
C1743      C1752   1.402       .  A
O1744      H1760   0.992       .  S
O1746      H1757   0.992       .  S
C1748      C1749   1.404       .  A
C1748      O1753   1.371       .  S
C1749      C1750   1.408       .  A
C1749      H1754   1.084       .  S
C1750      C1751   1.415       .  A
C1751      C1752   1.404       .  A
C1751      O1755   1.371       .  S
C1752      H1756   1.084       .  S
O1753      H1758   0.992       .  S
O1755      H1759   0.991       .  S
C1761      C1762   1.400       .  A
C1761      C1766   1.397       .  A
C1761      H1771   1.084       .  S
C1762      C1767   1.471       .  S
C1762      C1763   1.404       .  A
C1763      C1764   1.400       .  A
C1763      O1768   1.372       .  S
C1764      C1765   1.407       .  A
C1764      H1769   1.084       .  S
C1765      C1766   1.411       .  A
C1766      O1770   1.372       .  S
C1767      C1772   1.403       .  A
C1767      C1776   1.400       .  A
O1768      H1784   0.992       .  S
O1770      H1781   0.992       .  S
C1772      C1773   1.396       .  A
C1772      O1777   1.372       .  S
C1773      C1774   1.408       .  A
C1773      H1778   1.083       .  S
C1774      C1775   1.414       .  A
C1775      C1776   1.401       .  A
C1775      O1779   1.372       .  S
C1776      H1780   1.084       .  S
O1777      H1782   0.992       .  S
O1779      H1783   0.992       .  S
C1785      C1786   1.405       .  A
C1785      C1790   1.403       .  A
C1785      H1795   1.083       .  S
C1786      C1791   1.484       .  S
C1786      C1787   1.408       .  A
C1787      C1788   1.397       .  A
C1787      O1792   1.372       .  S
C1788      C1789   1.406       .  A
C1788      H1793   1.084       .  S
C1789      C1790   1.412       .  A
C1790      O1794   1.372       .  S
C1791      C1796   1.406       .  A
C1791      C1800   1.405       .  A
O1792      H1808   0.992       .  S
O1794      H1805   0.992       .  S
C1796      C1797   1.398       .  A
C1796      O1801   1.372       .  S
C1797      C1798   1.407       .  A
C1797      H1802   1.083       .  S
C1798      C1799   1.412       .  A
C1799      C1800   1.403       .  A
C1799      O1803   1.371       .  S
C1800      H1804   1.084       .  S
O1801      H1806   0.992       .  S
O1803      H1807   0.992       .  S
C1809      C1810   1.409       .  A
C1809      C1814   1.406       .  A
C1809      H1819   1.083       .  S
C1810      C1815   1.481   1_545  S
C1810      C1811   1.402   1_554  A
C1811      C1812   1.396       .  A
C1811      O1816   1.373       .  S
C1812      C1813   1.410       .  A
C1812      H1817   1.084       .  S
C1813      C1814   1.405   1_556  A
C1814      O1818   1.370       .  S
C1815      C1820   1.412       .  A
C1815      C1824   1.396       .  A
O1816      H1832   0.992   1_655  S
O1818      H1829   0.992       .  S
C1820      C1821   1.408   1_655  A
C1820      O1825   1.372   1_665  S
C1821      C1822   1.403   1_455  A
C1821      H1826   1.083       .  S
C1822      C1823   1.414       .  A
C1823      C1824   1.395       .  A
C1823      O1827   1.373       .  S
C1824      H1828   1.084   1_554  S
O1825      H1830   0.992   1_544  S
O1827      H1831   0.991   1_554  S
C1833      C1834   1.398       .  A
C1833      C1838   1.392       .  A
C1833      H1843   1.084       .  S
C1834      C1839   1.471       .  S
C1834      C1835   1.408       .  A
C1835      C1836   1.401       .  A
C1835      O1840   1.372       .  S
C1836      C1837   1.403       .  A
C1836      H1841   1.084       .  S
C1837      C1838   1.411       .  A
C1838      O1842   1.372       .  S
C1839      C1844   1.407   1_554  A
C1839      C1848   1.397   1_554  A
O1840      H1856   0.992       .  S
O1842      H1853   0.992       .  S
C1844      C1845   1.398       .  A
C1844      O1849   1.372   1_556  S
C1845      C1846   1.404       .  A
C1845      H1850   1.084       .  S
C1846      C1847   1.415       .  A
C1847      C1848   1.395       .  A
C1847      O1851   1.372       .  S
C1848      H1852   1.084   1_556  S
O1849      H1854   0.992       .  S
O1851      H1855   0.992       .  S
C1857      C1858   1.400       .  A
C1857      C1862   1.397       .  A
C1857      H1867   1.084       .  S
C1858      C1863   1.473       .  S
C1858      C1859   1.403       .  A
C1859      C1860   1.401       .  A
C1859      O1864   1.371       .  S
C1860      C1861   1.411       .  A
C1860      H1865   1.084       .  S
C1861      C1862   1.411       .  A
C1862      O1866   1.371       .  S
C1863      C1868   1.403       .  A
C1863      C1872   1.404       .  A
O1864      H1880   0.992       .  S
O1866      H1877   0.992       .  S
C1868      C1869   1.397       .  A
C1868      O1873   1.372       .  S
C1869      C1870   1.406       .  A
C1869      H1874   1.084       .  S
C1870      C1871   1.406       .  A
C1871      C1872   1.401       .  A
C1871      O1875   1.371       .  S
C1872      H1876   1.084       .  S
O1873      H1878   0.992       .  S
O1875      H1879   0.991       .  S
C1881      C1882   1.403       .  A
C1881      C1886   1.403       .  A
C1881      H1891   1.083       .  S
C1882      C1887   1.494       .  S
C1882      C1883   1.412       .  A
C1883      C1884   1.404       .  A
C1883      O1888   1.371       .  S
C1884      C1885   1.405       .  A
C1884      H1889   1.083       .  S
C1885      C1886   1.416       .  A
C1886      O1890   1.372       .  S
C1887      C1892   1.412       .  A
C1887      C1896   1.402       .  A
O1888      H1904   0.992       .  S
O1890      H1901   0.992       .  S
C1892      C1893   1.409       .  A
C1892      O1897   1.372       .  S
C1893      C1894   1.408       .  A
C1893      H1898   1.083       .  S
C1894      C1895   1.416       .  A
C1895      C1896   1.399       .  A
C1895      O1899   1.372       .  S
C1896      H1900   1.084       .  S
O1897      H1902   0.992       .  S
O1899      H1903   0.992       .  S
C1905      C1906   1.403       .  A
C1905      C1910   1.400       .  A
C1905      H1915   1.084       .  S
C1906      C1911   1.482       .  S
C1906      C1907   1.409       .  A
C1907      C1908   1.402       .  A
C1907      O1912   1.372       .  S
C1908      C1909   1.402       .  A
C1908      H1913   1.084       .  S
C1909      C1910   1.408       .  A
C1910      O1914   1.372       .  S
C1911      C1916   1.408       .  A
C1911      C1920   1.400       .  A
O1912      H1928   0.992       .  S
O1914      H1925   0.991       .  S
C1916      C1917   1.400       .  A
C1916      O1921   1.372       .  S
C1917      C1918   1.407       .  A
C1917      H1922   1.083       .  S
C1918      C1919   1.418       .  A
C1919      C1920   1.403       .  A
C1919      O1923   1.371       .  S
C1920      H1924   1.084       .  S
O1921      H1926   0.992       .  S
O1923      H1927   0.992       .  S
C1929      C1930   1.400       .  A
C1929      C1934   1.396       .  A
C1929      H1939   1.083       .  S
C1930      C1935   1.485   1_554  S
C1930      C1931   1.412       .  A
C1931      C1932   1.400       .  A
C1931      O1936   1.372       .  S
C1932      C1933   1.404       .  A
C1932      H1937   1.083       .  S
C1933      C1934   1.417       .  A
C1934      O1938   1.372       .  S
C1935      C1940   1.412       .  A
C1935      C1944   1.404       .  A
O1936      H1952   0.992       .  S
O1938      H1949   0.991       .  S
C1940      C1941   1.400       .  A
C1940      O1945   1.372       .  S
C1941      C1942   1.401       .  A
C1941      H1946   1.084       .  S
C1942      C1943   1.408       .  A
C1943      C1944   1.397       .  A
C1943      O1947   1.372       .  S
C1944      H1948   1.084   1_556  S
O1945      H1950   0.992       .  S
O1947      H1951   0.992       .  S
C1953      C1954   1.400       .  A
C1953      C1958   1.394       .  A
C1953      H1963   1.084       .  S
C1954      C1959   1.478       .  S
C1954      C1955   1.410       .  A
C1955      C1956   1.405       .  A
C1955      O1960   1.373       .  S
C1956      C1957   1.404       .  A
C1956      H1961   1.083       .  S
C1957      C1958   1.409       .  A
C1958      O1962   1.373       .  S
C1959      C1964   1.407       .  A
C1959      C1968   1.402       .  A
O1960      H1976   0.992       .  S
O1962      H1973   0.992       .  S
C1964      C1965   1.399       .  A
C1964      O1969   1.372       .  S
C1965      C1966   1.408       .  A
C1965      H1970   1.083       .  S
C1966      C1967   1.413       .  A
C1967      C1968   1.398       .  A
C1967      O1971   1.371       .  S
C1968      H1972   1.084       .  S
O1969      H1974   0.992       .  S
O1971      H1975   0.992       .  S
C1977      C1978   1.402       .  A
C1977      C1982   1.406       .  A
C1977      H1987   1.083       .  S
C1978      C1983   1.474       .  S
C1978      C1979   1.403       .  A
C1979      C1980   1.394       .  A
C1979      O1984   1.372       .  S
C1980      C1981   1.408       .  A
C1980      H1985   1.083       .  S
C1981      C1982   1.414       .  A
C1982      O1986   1.371       .  S
C1983      C1988   1.405       .  A
C1983      C1992   1.398       .  A
O1984      H2000   0.992       .  S
O1986      H1997   0.992       .  S
C1988      C1989   1.404       .  A
C1988      O1993   1.371       .  S
C1989      C1990   1.408       .  A
C1989      H1994   1.083       .  S
C1990      C1991   1.414       .  A
C1991      C1992   1.395       .  A
C1991      O1995   1.371       .  S
C1992      H1996   1.084       .  S
O1993      H1998   0.992       .  S
O1995      H1999   0.992       .  S
C2001      C2002   1.403       .  A
C2001      C2006   1.406       .  A
C2001      H2011   1.083       .  S
C2002      C2007   1.481       .  S
C2002      C2003   1.407       .  A
C2003      C2004   1.399       .  A
C2003      O2008   1.372       .  S
C2004      C2005   1.401       .  A
C2004      H2009   1.084       .  S
C2005      C2006   1.409       .  A
C2006      O2010   1.372       .  S
C2007      C2012   1.404       .  A
C2007      C2016   1.403       .  A
O2008      H2024   0.992       .  S
O2010      H2021   0.991       .  S
C2012      C2013   1.402       .  A
C2012      O2017   1.372       .  S
C2013      C2014   1.410       .  A
C2013      H2018   1.083   1_556  S
C2014      C2015   1.414       .  A
C2015      C2016   1.401       .  A
C2015      O2019   1.372       .  S
C2016      H2020   1.084       .  S
O2017      H2022   0.992   1_556  S
O2019      H2023   0.992       .  S
C2025      C2026   1.405       .  A
C2025      C2030   1.403       .  A
C2025      H2035   1.084       .  S
C2026      C2031   1.490       .  S
C2026      C2027   1.410       .  A
C2027      C2028   1.404       .  A
C2027      O2032   1.373       .  S
C2028      C2029   1.406       .  A
C2028      H2033   1.084       .  S
C2029      C2030   1.411       .  A
C2030      O2034   1.372       .  S
C2031      C2036   1.407       .  A
C2031      C2040   1.411       .  A
O2032      H2048   0.992       .  S
O2034      H2045   0.992       .  S
C2036      C2037   1.394       .  A
C2036      O2041   1.372       .  S
C2037      C2038   1.405       .  A
C2037      H2042   1.084       .  S
C2038      C2039   1.406       .  A
C2039      C2040   1.408       .  A
C2039      O2043   1.371       .  S
C2040      H2044   1.083       .  S
O2041      H2046   0.992       .  S
O2043      H2047   0.992       .  S
C2049      C2050   1.404       .  A
C2049      C2054   1.400       .  A
C2049      H2059   1.084       .  S
C2050      C2055   1.475       .  S
C2050      C2051   1.404       .  A
C2051      C2052   1.393       .  A
C2051      O2056   1.373       .  S
C2052      C2053   1.406       .  A
C2052      H2057   1.083       .  S
C2053      C2054   1.411       .  A
C2054      O2058   1.372       .  S
C2055      C2060   1.409       .  A
C2055      C2064   1.401       .  A
O2056      H2072   0.992       .  S
O2058      H2069   0.992       .  S
C2060      C2061   1.395       .  A
C2060      O2065   1.372       .  S
C2061      C2062   1.402       .  A
C2061      H2066   1.084       .  S
C2062      C2063   1.410       .  A
C2063      C2064   1.397       .  A
C2063      O2067   1.372       .  S
C2064      H2068   1.084       .  S
O2065      H2070   0.992       .  S
O2067      H2071   0.992       .  S
C2073      C2074   1.398       .  A
C2073      C2078   1.394       .  A
C2073      H2083   1.084       .  S
C2074      C2079   1.465       .  S
C2074      C2075   1.403       .  A
C2075      C2076   1.394       .  A
C2075      O2080   1.372       .  S
C2076      C2077   1.405       .  A
C2076      H2081   1.083       .  S
C2077      C2078   1.415       .  A
C2078      O2082   1.373       .  S
C2079      C2084   1.405       .  A
C2079      C2088   1.398       .  A
O2080      H2096   0.992       .  S
O2082      H2093   0.992       .  S
C2084      C2085   1.393       .  A
C2084      O2089   1.372       .  S
C2085      C2086   1.403       .  A
C2085      H2090   1.084       .  S
C2086      C2087   1.413       .  A
C2087      C2088   1.395       .  A
C2087      O2091   1.372       .  S
C2088      H2092   1.084       .  S
O2089      H2094   0.992       .  S
O2091      H2095   0.992       .  S
C2097      C2098   1.404       .  A
C2097      C2102   1.389       .  A
C2097      H2107   1.083       .  S
C2098      C2103   1.466       .  S
C2098      C2099   1.408       .  A
C2099      C2100   1.392       .  A
C2099      O2104   1.372       .  S
C2100      C2101   1.399       .  A
C2100      H2105   1.084       .  S
C2101      C2102   1.401       .  A
C2102      O2106   1.373       .  S
C2103      C2108   1.405       .  A
C2103      C2112   1.406       .  A
O2104      H2120   0.992       .  S
O2106      H2117   0.991       .  S
C2108      C2109   1.387       .  A
C2108      O2113   1.374       .  S
C2109      C2110   1.399       .  A
C2109      H2114   1.083       .  S
C2110      C2111   1.403       .  A
C2111      C2112   1.395       .  A
C2111      O2115   1.372       .  S
C2112      H2116   1.083       .  S
O2113      H2118   0.992       .  S
O2115      H2119   0.992       .  S
C2121      C2122   1.404       .  A
C2121      C2126   1.399       .  A
C2121      H2131   1.084       .  S
C2122      C2127   1.472       .  S
C2122      C2123   1.405       .  A
C2123      C2124   1.395       .  A
C2123      O2128   1.372       .  S
C2124      C2125   1.402       .  A
C2124      H2129   1.084       .  S
C2125      C2126   1.406       .  A
C2126      O2130   1.371       .  S
C2127      C2132   1.405       .  A
C2127      C2136   1.398       .  A
O2128      H2144   0.992       .  S
O2130      H2141   0.992       .  S
C2132      C2133   1.398       .  A
C2132      O2137   1.371       .  S
C2133      C2134   1.407       .  A
C2133      H2138   1.083       .  S
C2134      C2135   1.414       .  A
C2135      C2136   1.395       .  A
C2135      O2139   1.371       .  S
C2136      H2140   1.084       .  S
O2137      H2142   0.992       .  S
O2139      H2143   0.992       .  S
C2145      C2146   1.400       .  A
C2145      C2150   1.398       .  A
C2145      H2155   1.084       .  S
C2146      C2151   1.479       .  S
C2146      C2147   1.405       .  A
C2147      C2148   1.403       .  A
C2147      O2152   1.372       .  S
C2148      C2149   1.409       .  A
C2148      H2153   1.083       .  S
C2149      C2150   1.414       .  A
C2150      O2154   1.372       .  S
C2151      C2156   1.407       .  A
C2151      C2160   1.400       .  A
O2152      H2168   0.992       .  S
O2154      H2165   0.992       .  S
C2156      C2157   1.404       .  A
C2156      O2161   1.372       .  S
C2157      C2158   1.408       .  A
C2157      H2162   1.083       .  S
C2158      C2159   1.414       .  A
C2159      C2160   1.397       .  A
C2159      O2163   1.371       .  S
C2160      H2164   1.084       .  S
O2161      H2166   0.992       .  S
O2163      H2167   0.992       .  S
C2169      C2170   1.399       .  A
C2169      C2174   1.397       .  A
C2169      H2179   1.084       .  S
C2170      C2175   1.477       .  S
C2170      C2171   1.409       .  A
C2171      C2172   1.401       .  A
C2171      O2176   1.373       .  S
C2172      C2173   1.404       .  A
C2172      H2177   1.084       .  S
C2173      C2174   1.414       .  A
C2174      O2178   1.372       .  S
C2175      C2180   1.406       .  A
C2175      C2184   1.405       .  A
O2176      H2192   0.992       .  S
O2178      H2189   0.992       .  S
C2180      C2181   1.395       .  A
C2180      O2185   1.372       .  S
C2181      C2182   1.405       .  A
C2181      H2186   1.084       .  S
C2182      C2183   1.408       .  A
C2183      C2184   1.401       .  A
C2183      O2187   1.371       .  S
C2184      H2188   1.084       .  S
O2185      H2190   0.992       .  S
O2187      H2191   0.992       .  S
C2193      C2194   1.400       .  A
C2193      C2198   1.396       .  A
C2193      H2203   1.084       .  S
C2194      C2199   1.478       .  S
C2194      C2195   1.407       .  A
C2195      C2196   1.402       .  A
C2195      O2200   1.371       .  S
C2196      C2197   1.408       .  A
C2196      H2201   1.083       .  S
C2197      C2198   1.414       .  A
C2198      O2202   1.372       .  S
C2199      C2204   1.410       .  A
C2199      C2208   1.398       .  A
O2200      H2216   0.992       .  S
O2202      H2213   0.991       .  S
C2204      C2205   1.404       .  A
C2204      O2209   1.372       .  S
C2205      C2206   1.403       .  A
C2205      H2210   1.083       .  S
C2206      C2207   1.414       .  A
C2207      C2208   1.395       .  A
C2207      O2211   1.373       .  S
C2208      H2212   1.084       .  S
O2209      H2214   0.992       .  S
O2211      H2215   0.992       .  S
C2217      C2218   1.399       .  A
C2217      C2222   1.394       .  A
C2217      H2227   1.084       .  S
C2218      C2223   1.474       .  S
C2218      C2219   1.408       .  A
C2219      C2220   1.400       .  A
C2219      O2224   1.371       .  S
C2220      C2221   1.405       .  A
C2220      H2225   1.083       .  S
C2221      C2222   1.414       .  A
C2222      O2226   1.372       .  S
C2223      C2228   1.407       .  A
C2223      C2232   1.401       .  A
O2224      H2240   0.992       .  S
O2226      H2237   0.992       .  S
C2228      C2229   1.398       .  A
C2228      O2233   1.372       .  S
C2229      C2230   1.404       .  A
C2229      H2234   1.084       .  S
C2230      C2231   1.410       .  A
C2231      C2232   1.396       .  A
C2231      O2235   1.372   1_556  S
C2232      H2236   1.084       .  S
O2233      H2238   0.992       .  S
O2235      H2239   0.992       .  S
C2241      C2242   1.400   1_556  A
C2241      C2246   1.395       .  A
C2241      H2251   1.084       .  S
C2242      C2247   1.490   1_554  S
C2242      C2243   1.416       .  A
C2243      C2244   1.410       .  A
C2243      O2248   1.373       .  S
C2244      C2245   1.401       .  A
C2244      H2249   1.083       .  S
C2245      C2246   1.413   1_554  A
C2246      O2250   1.373       .  S
C2247      C2252   1.412   1_556  A
C2247      C2256   1.406       .  A
O2248      H2264   0.992       .  S
O2250      H2261   0.992       .  S
C2252      C2253   1.402       .  A
C2252      O2257   1.371       .  S
C2253      C2254   1.402   1_554  A
C2253      H2258   1.084       .  S
C2254      C2255   1.406       .  A
C2255      C2256   1.400       .  A
C2255      O2259   1.372       .  S
C2256      H2260   1.083       .  S
O2257      H2262   0.992       .  S
O2259      H2263   0.992       .  S
C2265      C2266   1.401       .  A
C2265      C2270   1.395       .  A
C2265      H2275   1.083       .  S
C2266      C2271   1.474       .  S
C2266      C2267   1.407       .  A
C2267      C2268   1.395       .  A
C2267      O2272   1.372       .  S
C2268      C2269   1.405       .  A
C2268      H2273   1.084       .  S
C2269      C2270   1.410       .  A
C2270      O2274   1.372       .  S
C2271      C2276   1.404       .  A
C2271      C2280   1.402       .  A
O2272      H2288   0.992       .  S
O2274      H2285   0.992       .  S
C2276      C2277   1.397   1_554  A
C2276      O2281   1.372       .  S
C2277      C2278   1.407       .  A
C2277      H2282   1.083       .  S
C2278      C2279   1.412       .  A
C2279      C2280   1.396   1_556  A
C2279      O2283   1.372       .  S
C2280      H2284   1.084       .  S
O2281      H2286   0.992       .  S
O2283      H2287   0.992       .  S
C2289      C2290   1.396       .  A
C2289      C2294   1.395       .  A
C2289      H2299   1.084       .  S
C2290      C2295   1.467       .  S
C2290      C2291   1.405       .  A
C2291      C2292   1.399       .  A
C2291      O2296   1.372       .  S
C2292      C2293   1.404       .  A
C2292      H2297   1.083       .  S
C2293      C2294   1.414       .  A
C2294      O2298   1.372       .  S
C2295      C2300   1.401       .  A
C2295      C2304   1.401       .  A
O2296      H2312   0.992       .  S
O2298      H2309   0.992       .  S
C2300      C2301   1.390       .  A
C2300      O2305   1.372       .  S
C2301      C2302   1.408       .  A
C2301      H2306   1.083       .  S
C2302      C2303   1.413       .  A
C2303      C2304   1.401       .  A
C2303      O2307   1.371       .  S
C2304      H2308   1.084       .  S
O2305      H2310   0.992       .  S
O2307      H2311   0.992       .  S
C2313      C2314   1.403       .  A
C2313      C2318   1.397       .  A
C2313      H2323   1.084       .  S
C2314      C2319   1.467       .  S
C2314      C2315   1.403       .  A
C2315      C2316   1.393       .  A
C2315      O2320   1.372       .  S
C2316      C2317   1.406       .  A
C2316      H2321   1.084       .  S
C2317      C2318   1.409       .  A
C2318      O2322   1.372       .  S
C2319      C2324   1.405       .  A
C2319      C2328   1.400       .  A
O2320      H2336   0.992       .  S
O2322      H2333   0.992       .  S
C2324      C2325   1.398       .  A
C2324      O2329   1.372       .  S
C2325      C2326   1.406       .  A
C2325      H2330   1.084       .  S
C2326      C2327   1.408       .  A
C2327      C2328   1.391       .  A
C2327      O2331   1.372       .  S
C2328      H2332   1.084       .  S
O2329      H2334   0.992       .  S
O2331      H2335   0.992       .  S
C2337      C2338   1.403       .  A
C2337      C2342   1.405       .  A
C2337      H2347   1.084       .  S
C2338      C2343   1.492       .  S
C2338      C2339   1.408       .  A
C2339      C2340   1.407       .  A
C2339      O2344   1.372       .  S
C2340      C2341   1.408       .  A
C2340      H2345   1.083       .  S
C2341      C2342   1.416       .  A
C2342      O2346   1.373       .  S
C2343      C2348   1.409       .  A
C2343      C2352   1.403       .  A
O2344      H2360   0.992       .  S
O2346      H2357   0.992       .  S
C2348      C2349   1.405       .  A
C2348      O2353   1.372       .  S
C2349      C2350   1.408       .  A
C2349      H2354   1.083       .  S
C2350      C2351   1.416       .  A
C2351      C2352   1.406       .  A
C2351      O2355   1.371       .  S
C2352      H2356   1.084       .  S
O2353      H2358   0.992       .  S
O2355      H2359   0.992       .  S
C2361      C2362   1.404       .  A
C2361      C2366   1.402       .  A
C2361      H2371   1.083       .  S
C2362      C2367   1.480       .  S
C2362      C2363   1.406       .  A
C2363      C2364   1.396       .  A
C2363      O2368   1.372       .  S
C2364      C2365   1.406       .  A
C2364      H2369   1.083       .  S
C2365      C2366   1.413       .  A
C2366      O2370   1.372       .  S
C2367      C2372   1.406       .  A
C2367      C2376   1.404       .  A
O2368      H2384   0.992       .  S
O2370      H2381   0.992       .  S
C2372      C2373   1.397       .  A
C2372      O2377   1.372       .  S
C2373      C2374   1.407       .  A
C2373      H2378   1.084       .  S
C2374      C2375   1.412       .  A
C2375      C2376   1.401       .  A
C2375      O2379   1.371       .  S
C2376      H2380   1.084       .  S
O2377      H2382   0.992       .  S
O2379      H2383   0.992       .  S
C2385      C2386   1.403       .  A
C2385      C2390   1.401       .  A
C2385      H2395   1.083       .  S
C2386      C2391   1.485       .  S
C2386      C2387   1.407       .  A
C2387      C2388   1.401       .  A
C2387      O2392   1.372       .  S
C2388      C2389   1.408       .  A
C2388      H2393   1.083       .  S
C2389      C2390   1.413       .  A
C2390      O2394   1.371       .  S
C2391      C2396   1.408       .  A
C2391      C2400   1.403       .  A
O2392      H2408   0.992       .  S
O2394      H2405   0.992       .  S
C2396      C2397   1.402       .  A
C2396      O2401   1.372       .  S
C2397      C2398   1.405       .  A
C2397      H2402   1.084       .  S
C2398      C2399   1.411       .  A
C2399      C2400   1.401       .  A
C2399      O2403   1.370       .  S
C2400      H2404   1.084       .  S
O2401      H2406   0.992       .  S
O2403      H2407   0.992       .  S
C2409      C2410   1.401       .  A
C2409      C2414   1.396       .  A
C2409      H2419   1.084       .  S
C2410      C2415   1.474       .  S
C2410      C2411   1.408       .  A
C2411      C2412   1.399       .  A
C2411      O2416   1.373       .  S
C2412      C2413   1.402       .  A
C2412      H2417   1.084       .  S
C2413      C2414   1.410       .  A
C2414      O2418   1.372       .  S
C2415      C2420   1.408       .  A
C2415      C2424   1.400       .  A
O2416      H2432   0.992       .  S
O2418      H2429   0.992       .  S
C2420      C2421   1.398       .  A
C2420      O2425   1.371       .  S
C2421      C2422   1.403       .  A
C2421      H2426   1.084       .  S
C2422      C2423   1.410       .  A
C2423      C2424   1.393       .  A
C2423      O2427   1.372       .  S
C2424      H2428   1.084       .  S
O2425      H2430   0.992       .  S
O2427      H2431   0.992       .  S
C2433      C2434   1.400   1_556  A
C2433      C2438   1.395       .  A
C2433      H2443   1.084   1_556  S
C2434      C2439   1.469       .  S
C2434      C2435   1.405   1_554  A
C2435      C2436   1.395       .  A
C2435      O2440   1.372       .  S
C2436      C2437   1.406       .  A
C2436      H2441   1.083       .  S
C2437      C2438   1.410       .  A
C2438      O2442   1.372       .  S
C2439      C2444   1.407       .  A
C2439      C2448   1.396       .  A
O2440      H2456   0.992       .  S
O2442      H2453   0.992       .  S
C2444      C2445   1.398       .  A
C2444      O2449   1.372       .  S
C2445      C2446   1.404       .  A
C2445      H2450   1.084       .  S
C2446      C2447   1.416       .  A
C2447      C2448   1.391       .  A
C2447      O2451   1.372       .  S
C2448      H2452   1.084       .  S
O2449      H2454   0.992       .  S
O2451      H2455   0.992       .  S
C2457      C2458   1.404       .  A
C2457      C2462   1.405       .  A
C2457      H2467   1.083       .  S
C2458      C2463   1.477       .  S
C2458      C2459   1.403       .  A
C2459      C2460   1.394       .  A
C2459      O2464   1.372       .  S
C2460      C2461   1.407       .  A
C2460      H2465   1.083       .  S
C2461      C2462   1.414       .  A
C2462      O2466   1.372       .  S
C2463      C2468   1.406       .  A
C2463      C2472   1.400       .  A
O2464      H2480   0.992       .  S
O2466      H2477   0.992       .  S
C2468      C2469   1.399       .  A
C2468      O2473   1.371       .  S
C2469      C2470   1.407       .  A
C2469      H2474   1.083       .  S
C2470      C2471   1.416       .  A
C2471      C2472   1.400       .  A
C2471      O2475   1.371       .  S
C2472      H2476   1.084       .  S
O2473      H2478   0.992       .  S
O2475      H2479   0.992       .  S
C2481      C2482   1.412       .  A
C2481      C2486   1.412       .  A
C2481      H2491   1.083       .  S
C2482      C2487   1.493       .  S
C2482      C2483   1.402       .  A
C2483      C2484   1.397       .  A
C2483      O2488   1.372       .  S
C2484      C2485   1.413       .  A
C2484      H2489   1.083       .  S
C2485      C2486   1.411       .  A
C2486      O2490   1.371       .  S
C2487      C2492   1.403       .  A
C2487      C2496   1.413       .  A
O2488      H2504   0.992       .  S
O2490      H2501   0.992       .  S
C2492      C2493   1.398       .  A
C2492      O2497   1.372       .  S
C2493      C2494   1.410       .  A
C2493      H2498   1.084       .  S
C2494      C2495   1.406       .  A
C2495      C2496   1.412       .  A
C2495      O2499   1.370       .  S
C2496      H2500   1.083       .  S
O2497      H2502   0.992       .  S
O2499      H2503   0.991       .  S
C2505      C2506   1.405       .  A
C2505      C2510   1.399       .  A
C2505      H2515   1.083       .  S
C2506      C2511   1.483       .  S
C2506      C2507   1.407       .  A
C2507      C2508   1.397       .  A
C2507      O2512   1.372       .  S
C2508      C2509   1.408       .  A
C2508      H2513   1.083       .  S
C2509      C2510   1.411       .  A
C2510      O2514   1.371       .  S
C2511      C2516   1.408       .  A
C2511      C2520   1.405       .  A
O2512      H2528   0.992       .  S
O2514      H2525   0.992       .  S
C2516      C2517   1.398       .  A
C2516      O2521   1.373       .  S
C2517      C2518   1.404       .  A
C2517      H2522   1.084       .  S
C2518      C2519   1.408       .  A
C2519      C2520   1.400       .  A
C2519      O2523   1.370       .  S
C2520      H2524   1.083       .  S
O2521      H2526   0.992       .  S
O2523      H2527   0.992       .  S
C2529      C2530   1.399       .  A
C2529      C2534   1.397       .  A
C2529      H2539   1.084       .  S
C2530      C2535   1.476   1_556  S
C2530      C2531   1.405       .  A
C2531      C2532   1.402       .  A
C2531      O2536   1.372       .  S
C2532      C2533   1.409       .  A
C2532      H2537   1.083       .  S
C2533      C2534   1.415       .  A
C2534      O2538   1.372       .  S
C2535      C2540   1.404       .  A
C2535      C2544   1.404       .  A
O2536      H2552   0.992       .  S
O2538      H2549   0.992       .  S
C2540      C2541   1.396       .  A
C2540      O2545   1.372       .  S
C2541      C2542   1.405       .  A
C2541      H2546   1.084       .  S
C2542      C2543   1.410       .  A
C2543      C2544   1.402       .  A
C2543      O2547   1.370       .  S
C2544      H2548   1.084       .  S
O2545      H2550   0.992   1_554  S
O2547      H2551   0.992       .  S
C2553      C2554   1.402       .  A
C2553      C2558   1.399       .  A
C2553      H2563   1.084       .  S
C2554      C2559   1.473       .  S
C2554      C2555   1.403       .  A
C2555      C2556   1.396       .  A
C2555      O2560   1.372       .  S
C2556      C2557   1.409       .  A
C2556      H2561   1.083       .  S
C2557      C2558   1.412       .  A
C2558      O2562   1.372       .  S
C2559      C2564   1.404       .  A
C2559      C2568   1.402       .  A
O2560      H2576   0.992       .  S
O2562      H2573   0.992       .  S
C2564      C2565   1.395       .  A
C2564      O2569   1.372       .  S
C2565      C2566   1.406       .  A
C2565      H2570   1.084       .  S
C2566      C2567   1.413       .  A
C2567      C2568   1.400       .  A
C2567      O2571   1.372       .  S
C2568      H2572   1.084       .  S
O2569      H2574   0.992       .  S
O2571      H2575   0.992       .  S
C2577      C2578   1.402       .  A
C2577      C2582   1.402       .  A
C2577      H2587   1.084       .  S
C2578      C2583   1.482       .  S
C2578      C2579   1.407       .  A
C2579      C2580   1.399       .  A
C2579      O2584   1.372       .  S
C2580      C2581   1.407       .  A
C2580      H2585   1.084       .  S
C2581      C2582   1.414       .  A
C2582      O2586   1.371       .  S
C2583      C2588   1.406       .  A
C2583      C2592   1.403       .  A
O2584      H2600   0.992       .  S
O2586      H2597   0.992       .  S
C2588      C2589   1.398       .  A
C2588      O2593   1.372       .  S
C2589      C2590   1.408       .  A
C2589      H2594   1.082       .  S
C2590      C2591   1.413       .  A
C2591      C2592   1.404       .  A
C2591      O2595   1.371       .  S
C2592      H2596   1.083       .  S
O2593      H2598   0.992       .  S
O2595      H2599   0.992       .  S
C2601      C2602   1.402       .  A
C2601      C2606   1.401       .  A
C2601      H2611   1.084       .  S
C2602      C2607   1.477       .  S
C2602      C2603   1.406       .  A
C2603      C2604   1.398       .  A
C2603      O2608   1.372       .  S
C2604      C2605   1.406       .  A
C2604      H2609   1.083       .  S
C2605      C2606   1.414       .  A
C2606      O2610   1.372       .  S
C2607      C2612   1.407       .  A
C2607      C2616   1.399       .  A
O2608      H2624   0.992       .  S
O2610      H2621   0.992       .  S
C2612      C2613   1.400       .  A
C2612      O2617   1.371       .  S
C2613      C2614   1.406       .  A
C2613      H2618   1.083       .  S
C2614      C2615   1.417       .  A
C2615      C2616   1.398       .  A
C2615      O2619   1.372       .  S
C2616      H2620   1.084       .  S
O2617      H2622   0.992       .  S
O2619      H2623   0.992       .  S
C2625      C2626   1.398       .  A
C2625      C2630   1.395       .  A
C2625      H2635   1.084       .  S
C2626      C2631   1.470   1_556  S
C2626      C2627   1.408       .  A
C2627      C2628   1.401       .  A
C2627      O2632   1.372       .  S
C2628      C2629   1.401       .  A
C2628      H2633   1.084       .  S
C2629      C2630   1.409       .  A
C2630      O2634   1.373       .  S
C2631      C2636   1.405       .  A
C2631      C2640   1.398       .  A
O2632      H2648   0.992       .  S
O2634      H2645   0.992       .  S
C2636      C2637   1.395       .  A
C2636      O2641   1.372       .  S
C2637      C2638   1.405       .  A
C2637      H2642   1.083       .  S
C2638      C2639   1.416       .  A
C2639      C2640   1.399       .  A
C2639      O2643   1.371       .  S
C2640      H2644   1.084       .  S
O2641      H2646   0.992       .  S
O2643      H2647   0.992       .  S
C2649      C2650   1.402       .  A
C2649      C2654   1.391       .  A
C2649      H2659   1.083       .  S
C2650      C2655   1.475       .  S
C2650      C2651   1.409       .  A
C2651      C2652   1.399       .  A
C2651      O2656   1.372       .  S
C2652      C2653   1.403       .  A
C2652      H2657   1.083       .  S
C2653      C2654   1.408       .  A
C2654      O2658   1.372       .  S
C2655      C2660   1.408       .  A
C2655      C2664   1.399       .  A
O2656      H2672   0.992       .  S
O2658      H2669   0.992       .  S
C2660      C2661   1.398       .  A
C2660      O2665   1.373       .  S
C2661      C2662   1.404       .  A
C2661      H2666   1.083       .  S
C2662      C2663   1.415       .  A
C2663      C2664   1.396       .  A
C2663      O2667   1.372       .  S
C2664      H2668   1.084       .  S
O2665      H2670   0.992       .  S
O2667      H2671   0.992       .  S
C2673      C2674   1.399       .  A
C2673      C2678   1.396       .  A
C2673      H2683   1.084       .  S
C2674      C2679   1.468       .  S
C2674      C2675   1.404       .  A
C2675      C2676   1.399       .  A
C2675      O2680   1.372       .  S
C2676      C2677   1.407       .  A
C2676      H2681   1.083       .  S
C2677      C2678   1.413       .  A
C2678      O2682   1.371       .  S
C2679      C2684   1.402       .  A
C2679      C2688   1.400       .  A
O2680      H2696   0.992       .  S
O2682      H2693   0.992       .  S
C2684      C2685   1.393       .  A
C2684      O2689   1.372       .  S
C2685      C2686   1.407       .  A
C2685      H2690   1.083       .  S
C2686      C2687   1.415       .  A
C2687      C2688   1.402       .  A
C2687      O2691   1.372       .  S
C2688      H2692   1.084       .  S
O2689      H2694   0.992       .  S
O2691      H2695   0.992       .  S
C2697      C2698   1.401       .  A
C2697      C2702   1.394       .  A
C2697      H2707   1.084       .  S
C2698      C2703   1.470       .  S
C2698      C2699   1.403       .  A
C2699      C2700   1.398       .  A
C2699      O2704   1.372       .  S
C2700      C2701   1.406       .  A
C2700      H2705   1.084       .  S
C2701      C2702   1.411       .  A
C2702      O2706   1.372       .  S
C2703      C2708   1.408       .  A
C2703      C2712   1.400       .  A
O2704      H2720   0.992       .  S
O2706      H2717   0.992       .  S
C2708      C2709   1.398       .  A
C2708      O2713   1.372       .  S
C2709      C2710   1.403       .  A
C2709      H2714   1.084   1_455  S
C2710      C2711   1.409       .  A
C2711      C2712   1.394       .  A
C2711      O2715   1.373   1_556  S
C2712      H2716   1.084       .  S
O2713      H2718   0.992       .  S
O2715      H2719   0.992       .  S
C2721      C2722   1.403       .  A
C2721      C2726   1.399       .  A
C2721      H2731   1.084       .  S
C2722      C2727   1.474       .  S
C2722      C2723   1.406       .  A
C2723      C2724   1.398       .  A
C2723      O2728   1.373       .  S
C2724      C2725   1.404       .  A
C2724      H2729   1.084       .  S
C2725      C2726   1.408       .  A
C2726      O2730   1.372       .  S
C2727      C2732   1.403       .  A
C2727      C2736   1.407       .  A
O2728      H2744   0.992       .  S
O2730      H2741   0.992       .  S
C2732      C2733   1.391       .  A
C2732      O2737   1.372       .  S
C2733      C2734   1.406       .  A
C2733      H2738   1.084       .  S
C2734      C2735   1.405       .  A
C2735      C2736   1.404       .  A
C2735      O2739   1.371       .  S
C2736      H2740   1.083       .  S
O2737      H2742   0.992       .  S
O2739      H2743   0.992       .  S
C2745      C2746   1.404       .  A
C2745      C2750   1.401       .  A
C2745      H2755   1.084       .  S
C2746      C2751   1.481       .  S
C2746      C2747   1.406       .  A
C2747      C2748   1.399       .  A
C2747      O2752   1.373       .  S
C2748      C2749   1.406       .  A
C2748      H2753   1.083       .  S
C2749      C2750   1.413       .  A
C2750      O2754   1.372   1_455  S
C2751      C2756   1.409       .  A
C2751      C2760   1.404       .  A
O2752      H2768   0.992       .  S
O2754      H2765   0.992       .  S
C2756      C2757   1.397       .  A
C2756      O2761   1.372       .  S
C2757      C2758   1.403       .  A
C2757      H2762   1.082       .  S
C2758      C2759   1.410       .  A
C2759      C2760   1.401       .  A
C2759      O2763   1.372       .  S
C2760      H2764   1.084       .  S
O2761      H2766   0.992       .  S
O2763      H2767   0.992       .  S
C2769      C2770   1.396       .  A
C2769      C2774   1.396       .  A
C2769      H2779   1.084       .  S
C2770      C2775   1.468       .  S
C2770      C2771   1.405       .  A
C2771      C2772   1.398       .  A
C2771      O2776   1.372       .  S
C2772      C2773   1.406       .  A
C2772      H2777   1.083       .  S
C2773      C2774   1.416       .  A
C2774      O2778   1.372       .  S
C2775      C2780   1.403       .  A
C2775      C2784   1.399       .  A
O2776      H2792   0.992   1_655  S
O2778      H2789   0.992       .  S
C2780      C2781   1.398       .  A
C2780      O2785   1.372       .  S
C2781      C2782   1.408       .  A
C2781      H2786   1.082       .  S
C2782      C2783   1.413       .  A
C2783      C2784   1.396       .  A
C2783      O2787   1.371       .  S
C2784      H2788   1.084       .  S
O2785      H2790   0.992       .  S
O2787      H2791   0.992       .  S
C2793      C2794   1.400       .  A
C2793      C2798   1.396       .  A
C2793      H2803   1.084       .  S
C2794      C2799   1.464       .  S
C2794      C2795   1.402       .  A
C2795      C2796   1.396       .  A
C2795      O2800   1.371       .  S
C2796      C2797   1.405       .  A
C2796      H2801   1.083       .  S
C2797      C2798   1.408       .  A
C2798      O2802   1.372   1_655  S
C2799      C2804   1.399       .  A
C2799      C2808   1.401       .  A
O2800      H2816   0.992       .  S
O2802      H2813   0.992   1_455  S
C2804      C2805   1.392       .  A
C2804      O2809   1.372   1_655  S
C2805      C2806   1.409       .  A
C2805      H2810   1.083   1_655  S
C2806      C2807   1.411       .  A
C2807      C2808   1.400       .  A
C2807      O2811   1.372       .  S
C2808      H2812   1.084       .  S
O2809      H2814   0.992       .  S
O2811      H2815   0.992       .  S
C2817      C2818   1.403       .  A
C2817      C2822   1.406       .  A
C2817      H2827   1.083       .  S
C2818      C2823   1.489       .  S
C2818      C2819   1.410       .  A
C2819      C2820   1.400       .  A
C2819      O2824   1.372       .  S
C2820      C2821   1.407       .  A
C2820      H2825   1.084       .  S
C2821      C2822   1.417       .  A
C2822      O2826   1.371       .  S
C2823      C2828   1.410       .  A
C2823      C2832   1.402       .  A
O2824      H2840   0.992       .  S
O2826      H2837   0.992       .  S
C2828      C2829   1.406       .  A
C2828      O2833   1.371       .  S
C2829      C2830   1.407       .  A
C2829      H2834   1.084       .  S
C2830      C2831   1.414       .  A
C2831      C2832   1.400       .  A
C2831      O2835   1.371       .  S
C2832      H2836   1.084       .  S
O2833      H2838   0.992       .  S
O2835      H2839   0.992       .  S
C2841      C2842   1.402       .  A
C2841      C2846   1.398       .  A
C2841      H2851   1.084       .  S
C2842      C2847   1.475       .  S
C2842      C2843   1.406       .  A
C2843      C2844   1.400       .  A
C2843      O2848   1.372       .  S
C2844      C2845   1.405       .  A
C2844      H2849   1.084       .  S
C2845      C2846   1.410       .  A
C2846      O2850   1.372       .  S
C2847      C2852   1.406       .  A
C2847      C2856   1.402       .  A
O2848      H2864   0.992       .  S
O2850      H2861   0.992       .  S
C2852      C2853   1.397       .  A
C2852      O2857   1.372       .  S
C2853      C2854   1.406       .  A
C2853      H2858   1.083       .  S
C2854      C2855   1.413       .  A
C2855      C2856   1.400       .  A
C2855      O2859   1.372       .  S
C2856      H2860   1.084       .  S
O2857      H2862   0.992       .  S
O2859      H2863   0.992       .  S
C2865      C2866   1.398       .  A
C2865      C2870   1.395       .  A
C2865      H2875   1.084       .  S
C2866      C2871   1.480       .  S
C2866      C2867   1.409       .  A
C2867      C2868   1.404       .  A
C2867      O2872   1.373       .  S
C2868      C2869   1.405       .  A
C2868      H2873   1.083       .  S
C2869      C2870   1.417       .  A
C2870      O2874   1.372       .  S
C2871      C2876   1.407       .  A
C2871      C2880   1.405       .  A
O2872      H2888   0.992       .  S
O2874      H2885   0.992       .  S
C2876      C2877   1.395       .  A
C2876      O2881   1.372       .  S
C2877      C2878   1.406       .  A
C2877      H2882   1.084       .  S
C2878      C2879   1.411       .  A
C2879      C2880   1.402       .  A
C2879      O2883   1.372       .  S
C2880      H2884   1.084       .  S
O2881      H2886   0.992       .  S
O2883      H2887   0.992       .  S
C2889      C2890   1.400       .  A
C2889      C2894   1.394       .  A
C2889      H2899   1.084       .  S
C2890      C2895   1.467       .  S
C2890      C2891   1.407       .  A
C2891      C2892   1.394       .  A
C2891      O2896   1.373       .  S
C2892      C2893   1.401       .  A
C2892      H2897   1.084       .  S
C2893      C2894   1.410       .  A
C2894      O2898   1.372       .  S
C2895      C2900   1.408       .  A
C2895      C2904   1.400       .  A
O2896      H2912   0.992       .  S
O2898      H2909   0.992       .  S
C2900      C2901   1.395       .  A
C2900      O2905   1.372   1_655  S
C2901      C2902   1.400       .  A
C2901      H2906   1.084   1_655  S
C2902      C2903   1.407       .  A
C2903      C2904   1.393       .  A
C2903      O2907   1.372       .  S
C2904      H2908   1.084       .  S
O2905      H2910   0.992       .  S
O2907      H2911   0.992       .  S
C2913      C2914   1.400       .  A
C2913      C2918   1.398       .  A
C2913      H2923   1.084       .  S
C2914      C2919   1.472       .  S
C2914      C2915   1.406       .  A
C2915      C2916   1.392       .  A
C2915      O2920   1.372       .  S
C2916      C2917   1.404       .  A
C2916      H2921   1.084       .  S
C2917      C2918   1.415       .  A
C2918      O2922   1.372       .  S
C2919      C2924   1.407       .  A
C2919      C2928   1.397       .  A
O2920      H2936   0.992       .  S
O2922      H2933   0.992       .  S
C2924      C2925   1.401       .  A
C2924      O2929   1.372   1_655  S
C2925      C2926   1.406       .  A
C2925      H2930   1.083       .  S
C2926      C2927   1.414       .  A
C2927      C2928   1.390       .  A
C2927      O2931   1.372       .  S
C2928      H2932   1.084       .  S
O2929      H2934   0.992       .  S
O2931      H2935   0.992       .  S
C2937      C2938   1.400       .  A
C2937      C2942   1.400       .  A
C2937      H2947   1.084       .  S
C2938      C2943   1.474       .  S
C2938      C2939   1.407       .  A
C2939      C2940   1.398       .  A
C2939      O2944   1.372       .  S
C2940      C2941   1.406       .  A
C2940      H2945   1.084       .  S
C2941      C2942   1.414       .  A
C2942      O2946   1.371       .  S
C2943      C2948   1.406       .  A
C2943      C2952   1.401       .  A
O2944      H2960   0.992       .  S
O2946      H2957   0.992       .  S
C2948      C2949   1.403       .  A
C2948      O2953   1.372       .  S
C2949      C2950   1.403       .  A
C2949      H2954   1.084       .  S
C2950      C2951   1.406       .  A
C2951      C2952   1.395       .  A
C2951      O2955   1.372       .  S
C2952      H2956   1.084       .  S
O2953      H2958   0.992       .  S
O2955      H2959   0.992       .  S
C2961      C2962   1.405       .  A
C2961      C2966   1.404       .  A
C2961      H2971   1.084       .  S
C2962      C2967   1.487       .  S
C2962      C2963   1.405       .  A
C2963      C2964   1.401       .  A
C2963      O2968   1.372       .  S
C2964      C2965   1.410       .  A
C2964      H2969   1.083       .  S
C2965      C2966   1.413       .  A
C2966      O2970   1.372       .  S
C2967      C2972   1.405       .  A
C2967      C2976   1.407       .  A
O2968      H2984   0.992       .  S
O2970      H2981   0.992       .  S
C2972      C2973   1.396       .  A
C2972      O2977   1.372       .  S
C2973      C2974   1.408       .  A
C2973      H2978   1.083       .  S
C2974      C2975   1.415       .  A
C2975      C2976   1.409       .  A
C2975      O2979   1.372       .  S
C2976      H2980   1.083       .  S
O2977      H2982   0.992       .  S
O2979      H2983   0.992       .  S
C2985      C2986   1.409       .  A
C2985      C2990   1.409       .  A
C2985      H2995   1.083       .  S
C2986      C2991   1.490   1_545  S
C2986      C2987   1.406       .  A
C2987      C2988   1.399       .  A
C2987      O2992   1.372       .  S
C2988      C2989   1.408       .  A
C2988      H2993   1.084       .  S
C2989      C2990   1.408       .  A
C2990      O2994   1.371   1_655  S
C2991      C2996   1.411       .  A
C2991      C3000   1.404       .  A
O2992      H3008   0.992       .  S
O2994      H3005   0.992       .  S
C2996      C2997   1.406       .  A
C2996      O3001   1.372       .  S
C2997      C2998   1.403       .  A
C2997      H3002   1.083       .  S
C2998      C2999   1.408       .  A
C2999      C3000   1.401       .  A
C2999      O3003   1.372       .  S
C3000      H3004   1.084   1_565  S
O3001      H3006   0.992       .  S
O3003      H3007   0.992       .  S
