geometry optimzed in LAMMPS
_audit_creation_date              2020-11-30 
_audit_creation_method            'lammps2cif' 
_symmetry_space_group_name_H-M    'P1' 
_symmetry_Int_Tables_number       1 
_symmetry_cell_setting            triclinic 
loop_ 
_symmetry_equiv_pos_as_xyz 
  x,y,z 
_cell_length_a                    42.47028472 
_cell_length_b                    42.47889635752932 
_cell_length_c                    39.622666367270575 
_cell_angle_alpha                 90.84109227400036 
_cell_angle_beta                  89.79697488446196 
_cell_angle_gamma                 120.19348788481973 
loop_ 
_atom_site_label 
_atom_site_type_symbol 
_atom_site_fract_x 
_atom_site_fract_y 
_atom_site_fract_z 
_atom_site_charge 
O1          O  0.00109664  0.62098417  0.92100417    -0.57300
C2          C  0.98050174  0.70250414  0.94758729     0.75300
O3          O  0.06533356  0.69795479  0.00346504    -0.58500
C4          C  0.02184754  0.61017074  0.93235932     0.75300
C5          C  0.08679773  0.73047555  0.89507992     0.77700
Cd6        Cd  0.03554323  0.68269793  0.94563581     1.37500
O7          O  0.97463011  0.67324704  0.93302658    -0.57300
O8          O  0.05735491  0.70165746  0.88776135    -0.56100
C9          C  0.03538353  0.67719862  0.01830291     0.77600
O10         O  0.09381752  0.73687323  0.92639105    -0.58500
O11         O  0.01267073  0.72396922  0.95771888    -0.56900
O12         O  0.05043010  0.63383128  0.94756241    -0.56900
O13         O  0.00758999  0.66041329  0.99965285    -0.56100
O14         O  0.98567843  0.34075101  0.93511283    -0.57300
C15         C  0.02717716  0.28746789  0.96741430     0.75300
O16         O  0.94180251  0.24415664  0.01498262    -0.58500
C17         C  0.96612641  0.35143752  0.94986357     0.75300
C18         C  0.90822102  0.23526300  0.90957461     0.77700
Cd19       Cd  0.95754994  0.28163405  0.96288464     1.37500
O20         O  0.02393691  0.31484216  0.96137025    -0.57300
O21         O  0.94239283  0.24928266  0.90794842    -0.56100
C22         C  0.94911739  0.27068349  0.03481236     0.77600
O23         O  0.89615860  0.24101573  0.93687855    -0.58500
O24         O  0.99832865  0.25666240  0.96757111    -0.56900
O25         O  0.94143245  0.32918376  0.96928766    -0.56900
O26         O  0.95489321  0.29974334  0.02110607    -0.56100
O27         O  0.00319559  0.36700203  0.37637504    -0.57300
C28         C  0.95728784  0.25719367  0.36333854     0.75300
O29         O  0.04355511  0.31755308  0.29651982    -0.58500
C30         C  0.02822300  0.39552120  0.36290745     0.75300
C31         C  0.07376726  0.32526630  0.40217648     0.77700
Cd32       Cd  0.02273010  0.32536887  0.35392349     1.37500
O33         O  0.95987398  0.28669496  0.37393203    -0.57300
O34         O  0.04536443  0.32574588  0.41086628    -0.56100
C35         C  0.01531791  0.31361654  0.28157527     0.77600
O36         O  0.07943361  0.32523724  0.37071160    -0.58500
O37         O  0.98607870  0.25914263  0.35201728    -0.56900
O38         O  0.05144019  0.39195393  0.34562426    -0.56900
O39         O  0.99302462  0.31781105  0.29952918    -0.56100
O40         O  0.00091822  0.63753000  0.37311435    -0.57300
C41         C  0.01999818  0.73447208  0.33073583     0.75300
O42         O  0.94133697  0.63673693  0.27926739    -0.58500
C43         C  0.98411799  0.60504745  0.36191919     0.75300
C44         C  0.91071952  0.65477691  0.38173663     0.77700
Cd45       Cd  0.96765043  0.65880657  0.33755194     1.37500
O46         O  0.02703817  0.71353591  0.34751194    -0.57300
O47         O  0.94307133  0.66612591  0.39134677    -0.56100
C48         C  0.97242305  0.64800748  0.26586167     0.77600
O49         O  0.90391037  0.64492028  0.35092832    -0.58500
O50         O  0.98752292  0.72128174  0.32042492    -0.56900
O51         O  0.95879693  0.59740172  0.34090705    -0.56900
O52         O  0.99938563  0.66284989  0.28570812    -0.56100
O53         O  0.34819547  0.33832179  0.60334211    -0.57300
C54         C  0.27999028  0.23877059  0.62548071     0.75300
O55         O  0.29100241  0.33814166  0.68527446    -0.58500
C56         C  0.35799520  0.36970110  0.61545961     0.75300
C57         C  0.23620793  0.31296789  0.58127191     0.77700
Cd58       Cd  0.28650941  0.30922373  0.62834528     1.37500
O59         O  0.31053472  0.26772911  0.62232007    -0.57300
O60         O  0.26074891  0.30621509  0.57213574    -0.56100
C61         C  0.28445014  0.30983206  0.70113446     0.77600
O62         O  0.23403913  0.31732043  0.61274316    -0.58500
O63         O  0.25214523  0.24240341  0.62653393    -0.56900
O64         O  0.33449268  0.37302347  0.63231156    -0.56900
O65         O  0.27475708  0.28140227  0.68369992    -0.56100
O66         O  0.62521679  0.61137167  0.58769216    -0.57300
C67         C  0.69955723  0.71538924  0.61889233     0.75300
O68         O  0.70289399  0.62520623  0.66896182    -0.58500
C69         C  0.61462997  0.58076611  0.60106793     0.75300
C70         C  0.73605180  0.64213911  0.56369791     0.77700
Cd71       Cd  0.68611438  0.64217768  0.61412385     1.37500
O72         O  0.67138597  0.69058814  0.60405799    -0.57300
O73         O  0.70668920  0.64129147  0.55640258    -0.56100
C74         C  0.68358504  0.63473321  0.68610107     0.77600
O75         O  0.74238975  0.64195355  0.59493483    -0.58500
O76         O  0.72290146  0.70713520  0.62827694    -0.56900
O77         O  0.63806589  0.57814426  0.61856842    -0.56900
O78         O  0.66672052  0.64695964  0.66971571    -0.56100
O79         O  0.36653776  0.36090756  0.04565967    -0.57300
C80         C  0.25950930  0.29587385  0.02996786     0.75300
O81         O  0.32724076  0.27443063  0.96513642    -0.58500
C82         C  0.39630352  0.36415078  0.03554928     0.75300
C83         C  0.32804038  0.24596603  0.06812956     0.77700
Cd84       Cd  0.32769436  0.29883097  0.02320656     1.37500
O85         O  0.28851690  0.32240356  0.04194777    -0.57300
O86         O  0.32153505  0.27049594  0.07829063    -0.56100
C87         C  0.32359365  0.29880952  0.95048729     0.77600
O88         O  0.33328842  0.24496301  0.03671154    -0.58500
O89         O  0.26127844  0.26867307  0.01891460    -0.56900
O90         O  0.39436918  0.33649908  0.02107452    -0.56900
O91         O  0.32299002  0.32259707  0.96942112    -0.56100
O92         O  0.64639254  0.62777549  0.04153349    -0.57300
C93         C  0.75041737  0.70093286  0.00714191     0.75300
O94         O  0.65985416  0.69243684  0.94940878    -0.58500
C95         C  0.61567257  0.61438721  0.02708680     0.75300
C96         C  0.67196143  0.73714612  0.05174933     0.77700
Cd97       Cd  0.67618060  0.68403326  0.00801832     1.37500
O98         O  0.72719622  0.67657079  0.02624260    -0.57300
O99         O  0.67779483  0.71268679  0.06247002    -0.56100
C100        C  0.67043772  0.67188700  0.93608311     0.77600
O101        O  0.66845041  0.73797074  0.02002108    -0.58500
O102        O  0.73997104  0.71993346  0.99169816    -0.56900
O103        O  0.61317080  0.63366105  0.00441030    -0.56900
O104        O  0.68300913  0.65794485  0.95604089    -0.56100
O105        O  0.36474402  0.98226589  0.70481480    -0.57300
C106        C  0.29637083  0.01535925  0.67284945     0.75300
O107        O  0.28023457  0.93365483  0.61306198    -0.58500
C108        C  0.37777357  0.96401190  0.69146836     0.75300
C109        C  0.25619803  0.89894222  0.71510395     0.77700
Cd110      Cd  0.30848647  0.95458367  0.67071991     1.37500
O111        O  0.32800442  0.01979246  0.67565482    -0.57300
O112        O  0.27893509  0.93095444  0.72486978    -0.56100
C113        C  0.30907963  0.95598961  0.59777674     0.77600
O114        O  0.25824727  0.89141272  0.68430793    -0.58500
O115        O  0.27039766  0.98280679  0.67249981    -0.56900
O116        O  0.35767070  0.93993952  0.66988022    -0.56900
O117        O  0.33729941  0.97331634  0.61581603    -0.56100
O118        O  0.64202967  0.98806648  0.69875580    -0.57300
C119        C  0.71000535  0.95286793  0.67354974     0.75300
O120        O  0.72904488  0.03349593  0.61342885    -0.58500
C121        C  0.63345850  0.01050279  0.68741437     0.75300
C122        C  0.75448145  0.07317338  0.71680472     0.77700
Cd123      Cd  0.70251695  0.01653895  0.67158930     1.37500
O124        O  0.68774741  0.95612069  0.69260784    -0.57300
O125        O  0.73690185  0.03991951  0.72447013    -0.56100
C126        C  0.69890597  0.01193396  0.59898507     0.77600
O127        O  0.74926595  0.08090592  0.68732060    -0.58500
O128        O  0.73075469  0.98036474  0.65619633    -0.56900
O129        O  0.65739822  0.03651240  0.67026911    -0.56900
O130        O  0.67129148  0.99649539  0.61779513    -0.56100
O131        O  0.35561654  0.97624446  0.25456069    -0.57300
C132        C  0.25491163  0.95625746  0.27363689     0.75300
O133        O  0.33230338  0.03805418  0.33443840    -0.58500
C134        C  0.38862226  0.00041747  0.25927020     0.75300
C135        C  0.33464868  0.06925808  0.23218573     0.77700
Cd136      Cd  0.32992972  0.01305977  0.27631656     1.37500
O137        O  0.27847019  0.95526040  0.25466872    -0.57300
O138        O  0.32716181  0.03812886  0.22128741    -0.56100
C139        C  0.33428670  0.01276224  0.34916678     0.77600
O140        O  0.34101447  0.07526380  0.26356068    -0.58500
O141        O  0.26568005  0.98467527  0.29157173    -0.56900
O142        O  0.39479532  0.03127388  0.27001628    -0.56900
O143        O  0.33697616  0.98996744  0.33037982    -0.56100
O144        O  0.63754342  0.99126786  0.25520574    -0.57300
C145        C  0.73609942  0.02436903  0.29141659     0.75300
O146        O  0.66719264  0.92990767  0.33262651    -0.58500
C147        C  0.60537728  0.96635056  0.26164667     0.75300
C148        C  0.66966865  0.91114232  0.22780036     0.77700
Cd149      Cd  0.66722333  0.95976811  0.27898455     1.37500
O150        O  0.71177205  0.02538879  0.27390855    -0.57300
O151        O  0.68076299  0.94432707  0.22202624    -0.56100
C152        C  0.65884782  0.94955714  0.35063733     0.77600
O153        O  0.65823891  0.90049389  0.25737735    -0.58500
O154        O  0.73053278  0.99328599  0.29937208    -0.56900
O155        O  0.60158067  0.93745842  0.27436409    -0.56900
O156        O  0.65018749  0.96976792  0.33493034    -0.56100
C157        C  0.57395010  0.97149778  0.25630149     0.01800
C158        C  0.54509506  0.94776421  0.23475148     0.04700
C159        C  0.51402422  0.95136996  0.23181246    -0.11400
C160        C  0.51182948  0.97873569  0.25037467     0.24000
C161        C  0.54097692  0.00288858  0.27141665    -0.12000
C162        C  0.57196990  0.99927726  0.27441789     0.05400
C163        C  0.47818031  0.98110081  0.24958842     0.27800
C164        C  0.47514421  0.00492688  0.22724212    -0.12700
C165        C  0.44552433  0.01097801  0.22994181     0.05900
C166        C  0.41834320  0.99236576  0.25431942    -0.08600
C167        C  0.42036194  0.96688403  0.27530987     0.06700
C168        C  0.45041632  0.96155209  0.27316533    -0.13000
Br169      Br  0.53762493  0.04001813  0.29719629    -0.05100
Br170      Br  0.54844683  0.91077991  0.20887677     0.00600
Br171      Br  0.44199454  0.04439942  0.20005038     0.01000
Br172      Br  0.45442529  0.92842913  0.30330946    -0.03400
Br173      Br  0.61055247  0.03081242  0.30528904     0.01100
Br174      Br  0.47399864  0.91841222  0.20310924    -0.02700
Br175      Br  0.51183262  0.02933666  0.19322950    -0.03500
Br176      Br  0.38306384  0.94077519  0.30847242     0.00400
C177        C  0.66202633  0.95191492  0.38801010     0.01800
C178        C  0.63656606  0.95644849  0.40748797     0.04700
C179        C  0.64366235  0.96676160  0.44180394    -0.11400
C180        C  0.67599211  0.97225131  0.45701866     0.24000
C181        C  0.70073732  0.96637055  0.43813393    -0.12000
C182        C  0.69386962  0.95619448  0.40377571     0.05400
C183        C  0.68339153  0.98300264  0.49326081     0.27800
C184        C  0.70299167  0.02007419  0.50310380    -0.12700
C185        C  0.70916925  0.02998965  0.53764959     0.05900
C186        C  0.69553000  0.00275567  0.56242371    -0.08600
C187        C  0.67712408  0.96562265  0.55227333     0.06700
C188        C  0.67093900  0.95586757  0.51787539    -0.13000
Br189      Br  0.74481125  0.97365212  0.45935813    -0.05100
Br190      Br  0.59150134  0.94800880  0.38746156     0.00600
Br191      Br  0.73500760  0.08073752  0.55082910     0.01000
Br192      Br  0.64539059  0.90515360  0.50419955    -0.03400
Br193      Br  0.73003564  0.95127475  0.37824533     0.01100
Br194      Br  0.60955658  0.97429582  0.46801777    -0.02700
Br195      Br  0.72096252  0.05706252  0.46904000    -0.03500
Br196      Br  0.66187555  0.92763605  0.58527338     0.00400
C197        C  0.31012745  0.96381990  0.56121988     0.01800
C198        C  0.29447727  0.93563049  0.53661535     0.04700
C199        C  0.29791257  0.94418275  0.50199601    -0.11400
C200        C  0.31645447  0.98082827  0.49182597     0.24000
C201        C  0.33071356  0.00894058  0.51632748    -0.12000
C202        C  0.32753966  0.00057663  0.55083897     0.05400
C203        C  0.32145089  0.99002102  0.45536398     0.27800
C204        C  0.35332171  0.99596122  0.43870963    -0.12700
C205        C  0.35846550  0.00528421  0.40433308     0.05900
C206        C  0.33150936  0.00826222  0.38626758    -0.08600
C207        C  0.29958839  0.00229857  0.40303029     0.06700
C208        C  0.29469824  0.99339677  0.43751103    -0.13000
Br209      Br  0.35459339  0.05909328  0.50236374    -0.05100
Br210      Br  0.26946789  0.88535028  0.54993780     0.00600
Br211      Br  0.40285276  0.01472424  0.38219060     0.01000
Br212      Br  0.25082101  0.98460846  0.46026521    -0.03400
Br213      Br  0.34546863  0.04001497  0.58373725     0.01100
Br214      Br  0.27777732  0.90586183  0.46817452    -0.02700
Br215      Br  0.38941002  0.99028485  0.46302367    -0.03500
Br216      Br  0.26115186  0.00349886  0.37827542     0.00400
C217        C  0.41509321  0.97131074  0.69953018     0.01800
C218        C  0.42232659  0.94224737  0.70087043     0.04700
C219        C  0.45844653  0.94950733  0.70357380    -0.11400
C220        C  0.48750707  0.98568257  0.70558553     0.24000
C221        C  0.48034074  0.01459065  0.70681762    -0.12000
C222        C  0.44437079  0.00761859  0.70339018     0.05400
C223        C  0.52555385  0.99347522  0.70171376     0.27800
C224        C  0.54648296  0.99522478  0.72993719    -0.12700
C225        C  0.58213522  0.00147712  0.72546436     0.05900
C226        C  0.59682998  0.00580201  0.69269072    -0.08600
C227        C  0.57596462  0.00472823  0.66454981     0.06700
C228        C  0.54059320  0.99887143  0.66912865    -0.13000
Br229      Br  0.52048516  0.06396369  0.71126903    -0.05100
Br230      Br  0.38304061  0.89224730  0.69929462     0.00600
Br231      Br  0.61137654  0.00584730  0.76433519     0.01000
Br232      Br  0.51235481  0.99807019  0.63065212    -0.03400
Br233      Br  0.43660313  0.04860192  0.70060700     0.01100
Br234      Br  0.46857263  0.91000110  0.70295089    -0.02700
Br235      Br  0.52625808  0.98944289  0.77458383    -0.03500
Br236      Br  0.59467461  0.00911660  0.61929531     0.00400
C237        C  0.66952954  0.76310147  0.07561489     0.01800
C238        C  0.64559500  0.74981458  0.10343054     0.04700
C239        C  0.64501664  0.77419907  0.12759728    -0.11400
C240        C  0.66908354  0.81197507  0.12477070     0.24000
C241        C  0.69297744  0.82529200  0.09702730    -0.12000
C242        C  0.69285908  0.80100551  0.07227536     0.05400
C243        C  0.66943740  0.83761489  0.15112712     0.27800
C244        C  0.65134979  0.85721565  0.14533147    -0.12700
C245        C  0.65215713  0.88189590  0.17000689     0.05900
C246        C  0.66983872  0.88606619  0.20131262    -0.08600
C247        C  0.68731140  0.86583004  0.20731434     0.06700
C248        C  0.68764209  0.84220901  0.18210040    -0.13000
Br249      Br  0.72681850  0.87685338  0.09370841    -0.05100
Br250      Br  0.61293288  0.69809423  0.10830233     0.00600
Br251      Br  0.62761508  0.90876535  0.16117443     0.01000
Br252      Br  0.71340216  0.81629747  0.18974879    -0.03400
Br253      Br  0.72636123  0.81965326  0.03497111     0.01100
Br254      Br  0.61124549  0.75596461  0.16476923    -0.02700
Br255      Br  0.62458776  0.84929723  0.10378191    -0.03500
Br256      Br  0.71208323  0.87140300  0.24963128     0.00400
C257        C  0.43119531  0.39893673  0.03932216     0.01800
C258        C  0.43927595  0.41980408  0.06953231     0.04700
C259        C  0.47070127  0.45454803  0.07171836    -0.11400
C260        C  0.49359934  0.46896468  0.04354522     0.24000
C261        C  0.48623703  0.44789372  0.01377612    -0.12000
C262        C  0.45558960  0.41271106  0.01181982     0.05400
C263        C  0.52461176  0.50690957  0.04423409     0.27800
C264        C  0.51857858  0.53571238  0.03674913    -0.12700
C265        C  0.54825492  0.57121642  0.03300809     0.05900
C266        C  0.58443304  0.57792692  0.03550492    -0.08600
C267        C  0.59022653  0.54893571  0.04420158     0.06700
C268        C  0.56030039  0.51374095  0.04909807    -0.13000
Br269      Br  0.51750723  0.46820146  0.97502178    -0.05100
Br270      Br  0.40808211  0.40069221  0.10844252     0.00600
Br271      Br  0.53846590  0.61032310  0.02523739     0.01000
Br272      Br  0.56782958  0.47409629  0.06110835    -0.03400
Br273      Br  0.44668156  0.38481201  0.97042911     0.01100
Br274      Br  0.48240073  0.48282214  0.11307279    -0.02700
Br275      Br  0.46936897  0.52593768  0.03017763    -0.03500
Br276      Br  0.63868815  0.55569843  0.04668850     0.00400
C277        C  0.33504180  0.09669169  0.20928265     0.01800
C278        C  0.30728216  0.10562869  0.21131067     0.07100
C279        C  0.30639555  0.13016686  0.18828149    -0.11400
C280        C  0.33306586  0.14562852  0.16290410     0.24000
C281        C  0.36075788  0.13664467  0.16081650    -0.12000
C282        C  0.36179680  0.11233765  0.18399476     0.05400
C283        C  0.33201720  0.17132390  0.13839090     0.27800
C284        C  0.31328529  0.15821976  0.10746353    -0.12700
C285        C  0.31181863  0.18247107  0.08446102     0.05900
C286        C  0.32978703  0.22021356  0.09198194    -0.08600
C287        C  0.34934986  0.23334942  0.12269982     0.06700
C288        C  0.35004732  0.20890733  0.14592843    -0.13000
Br289      Br  0.39698457  0.15745443  0.12582971    -0.05100
Br290      Br  0.26933289  0.08268713  0.24451348     0.00600
Br291      Br  0.28345027  0.16339715  0.04356285     0.01000
Br292      Br  0.37592816  0.22677267  0.18819785    -0.03400
Br293      Br  0.40034698  0.10105219  0.18152137     0.01100
Br294      Br  0.26833322  0.14225822  0.19098692    -0.02700
Br295      Br  0.28963558  0.10684603  0.09677472    -0.03500
Br296      Br  0.37720623  0.28504176  0.13243629     0.00400
C297        C  0.71045904  0.91822097  0.66979217     0.01800
C298        C  0.67726131  0.88449644  0.66842374     0.04700
C299        C  0.67734205  0.85218328  0.66027415    -0.11400
C300        C  0.71024899  0.85320771  0.65283557     0.24000
C301        C  0.74340909  0.88641857  0.65491635    -0.12000
C302        C  0.74364520  0.91878221  0.66379344     0.05400
C303        C  0.70974697  0.81896327  0.64360955     0.27800
C304        C  0.71166902  0.79732853  0.66915893    -0.12700
C305        C  0.70893197  0.76374531  0.66088473     0.05900
C306        C  0.70401651  0.75148555  0.62690535    -0.08600
C307        C  0.70171461  0.77300355  0.60135518     0.06700
C308        C  0.70502472  0.80691271  0.60966838    -0.13000
Br309      Br  0.78841611  0.88735521  0.64509167    -0.05100
Br310      Br  0.63092954  0.88193077  0.67517306     0.00600
Br311      Br  0.70887351  0.73337246  0.69675120     0.01000
Br312      Br  0.70252882  0.83675175  0.57474774    -0.03400
Br313      Br  0.78981122  0.96343687  0.66890100     0.01100
Br314      Br  0.63217279  0.80614952  0.65861146    -0.02700
Br315      Br  0.71658093  0.81325009  0.71572710    -0.03500
Br316      Br  0.69415214  0.75612632  0.55501127     0.00400
C317        C  0.66880910  0.66410136  0.89920585     0.01800
C318        C  0.67959284  0.69221011  0.87542659     0.04700
C319        C  0.68081978  0.68481397  0.84077871    -0.11400
C320        C  0.67257764  0.64978040  0.82979748     0.24000
C321        C  0.66154058  0.62167209  0.85324652    -0.12000
C322        C  0.65912421  0.62856097  0.88771865     0.05400
C323        C  0.67508959  0.64238974  0.79342960     0.27800
C324        C  0.64370982  0.62748709  0.77299289    -0.12700
C325        C  0.64618936  0.62193300  0.73826626     0.05900
C326        C  0.68045487  0.63278717  0.72339343    -0.08600
C327        C  0.71168833  0.64628169  0.74421675     0.06700
C328        C  0.70883397  0.65063955  0.77924927    -0.13000
Br329      Br  0.64997459  0.57365670  0.83785753    -0.05100
Br330      Br  0.69551858  0.74155143  0.88997190     0.00600
Br331      Br  0.60210922  0.59856087  0.71134258     0.01000
Br332      Br  0.75126402  0.66898065  0.80796623    -0.03400
Br333      Br  0.64126232  0.58843962  0.91869358     0.01100
Br334      Br  0.69398514  0.72261347  0.80799242    -0.02700
Br335      Br  0.59748175  0.61595052  0.79255989    -0.03500
Br336      Br  0.75889194  0.66143801  0.72494206     0.00400
C337        C  0.27747114  0.20299995  0.63009446     0.01800
C338        C  0.25548585  0.17959269  0.65610724     0.04700
C339        C  0.25709400  0.14815174  0.66359376    -0.11400
C340        C  0.28064993  0.13998493  0.64543791     0.24000
C341        C  0.30167246  0.16247803  0.61889179    -0.12000
C342        C  0.29980316  0.19367375  0.61095295     0.05400
C343        C  0.28317848  0.10751784  0.65410557     0.27800
C344        C  0.30865657  0.11031301  0.67833551    -0.12700
C345        C  0.31179299  0.07971479  0.68583313     0.05900
C346        C  0.29024014  0.04642356  0.66819205    -0.08600
C347        C  0.26449558  0.04378573  0.64396351     0.06700
C348        C  0.26050904  0.07406872  0.63760050    -0.13000
Br349      Br  0.33361765  0.15071891  0.59393878    -0.05100
Br350      Br  0.22460197  0.19098516  0.68337211     0.00600
Br351      Br  0.34487726  0.08352735  0.72108706     0.01000
Br352      Br  0.22435840  0.07019864  0.60574598    -0.03400
Br353      Br  0.32675546  0.22263302  0.57286718     0.01100
Br354      Br  0.22780543  0.11645462  0.69941437    -0.02700
Br355      Br  0.33964045  0.15645138  0.70076393    -0.03500
Br356      Br  0.23661200  0.00008139  0.61686170     0.00400
C357        C  0.31945099  0.29971219  0.91336578     0.01800
C358        C  0.29601023  0.26748642  0.89494754     0.04700
C359        C  0.29011484  0.26911384  0.86018439    -0.11400
C360        C  0.30706444  0.30286454  0.84375446     0.24000
C361        C  0.33072842  0.33490286  0.86182055    -0.12000
C362        C  0.33679178  0.33348736  0.89648821     0.05400
C363        C  0.30090398  0.30477120  0.80718774     0.27800
C364        C  0.32352693  0.30090575  0.78350316    -0.12700
C365        C  0.31844302  0.30347287  0.74885979     0.05900
C366        C  0.29064378  0.30989092  0.73770500    -0.08600
C367        C  0.26831832  0.31428196  0.76136371     0.06700
C368        C  0.27342914  0.31169925  0.79613588    -0.13000
Br369      Br  0.35522102  0.38077840  0.83859822    -0.05100
Br370      Br  0.26943353  0.22133684  0.91743542     0.00600
Br371      Br  0.35046371  0.29927989  0.71664747     0.01000
Br372      Br  0.24284068  0.31745280  0.82875710    -0.03400
Br373      Br  0.36953311  0.37829380  0.92018779     0.01100
Br374      Br  0.25873401  0.22517354  0.83477944    -0.02700
Br375      Br  0.36167190  0.29234832  0.79878312    -0.03500
Br376      Br  0.23006590  0.32245678  0.74597169     0.00400
C377        C  0.39517145  0.40088928  0.61096392     0.01800
C378        C  0.41051991  0.41052498  0.57846247     0.04700
C379        C  0.44601536  0.44028169  0.57452246    -0.11400
C380        C  0.46617633  0.46058462  0.60298308     0.24000
C381        C  0.45066412  0.45138587  0.63538545    -0.12000
C382        C  0.41535821  0.42148273  0.63943281     0.05400
C383        C  0.50397798  0.49130657  0.59913464     0.27800
C384        C  0.53310192  0.48447253  0.59728608    -0.12700
C385        C  0.56921911  0.51365187  0.59592992     0.05900
C386        C  0.57653049  0.55004440  0.59778805    -0.08600
C387        C  0.54698716  0.55669311  0.59909234     0.06700
C388        C  0.51088860  0.52734346  0.59901719    -0.13000
Br389      Br  0.47802215  0.47984337  0.67428259    -0.05100
Br390      Br  0.38237425  0.38428536  0.53912146     0.00600
Br391      Br  0.60822279  0.50311117  0.59049396     0.01000
Br392      Br  0.47050594  0.53619977  0.59969270    -0.03400
Br393      Br  0.39561046  0.40777845  0.68434905     0.01100
Br394      Br  0.46710488  0.45370916  0.53016228    -0.02700
Br395      Br  0.52326389  0.43486339  0.59760527    -0.03500
Br396      Br  0.55507054  0.60555406  0.60406525     0.00400
C397        C  0.04899553  0.77153906  0.32166049     0.01800
C398        C  0.07432854  0.79476400  0.34624484     0.04700
C399        C  0.10523239  0.82744901  0.33651818    -0.11400
C400        C  0.11144873  0.83655941  0.30215991     0.24000
C401        C  0.08533511  0.81455526  0.27776736    -0.12000
C402        C  0.05393639  0.78224369  0.28744526     0.05400
C403        C  0.14727280  0.86690302  0.29149882     0.27800
C404        C  0.15259843  0.90203748  0.28704202    -0.12700
C405        C  0.18750347  0.93111457  0.27932631     0.05900
C406        C  0.21732997  0.92513746  0.27654436    -0.08600
C407        C  0.21153943  0.88953340  0.28015907     0.06700
C408        C  0.17648218  0.86048987  0.28707402    -0.13000
Br409      Br  0.09400397  0.82781725  0.23081488    -0.05100
Br410      Br  0.06698203  0.78185148  0.39327189     0.00600
Br411      Br  0.19399760  0.97887995  0.27212713     0.01000
Br412      Br  0.16836981  0.81171233  0.29147757    -0.03400
Br413      Br  0.01984638  0.75146380  0.25290044     0.01100
Br414      Br  0.14002956  0.85934016  0.36999031    -0.02700
Br415      Br  0.11203115  0.91015352  0.29221486    -0.03500
Br416      Br  0.25181165  0.88045404  0.27912038     0.00400
C417        C  0.88283182  0.65318304  0.40581845     0.01800
C418        C  0.89236029  0.68216355  0.42921184     0.04700
C419        C  0.86794760  0.67910039  0.45487995    -0.11400
C420        C  0.83297394  0.64795350  0.45648855     0.24000
C421        C  0.82256736  0.61984222  0.43214078    -0.12000
C422        C  0.84756868  0.62206619  0.40731072     0.05400
C423        C  0.80721105  0.64527821  0.48361030     0.27800
C424        C  0.80186534  0.62391769  0.51234022    -0.12700
C425        C  0.77858164  0.62260190  0.53853078     0.05900
C426        C  0.76141250  0.64373638  0.53674537    -0.08600
C427        C  0.76771280  0.66589565  0.50826536     0.06700
C428        C  0.78945172  0.66565409  0.48142928    -0.13000
Br429      Br  0.77391792  0.57820266  0.43305196    -0.05100
Br430      Br  0.93810340  0.72727602  0.42523497     0.00600
Br431      Br  0.76927364  0.59050530  0.57595356     0.01000
Br432      Br  0.79480830  0.69314456  0.44129630    -0.03400
Br433      Br  0.83384203  0.58126287  0.37690445     0.01100
Br434      Br  0.88261397  0.71747048  0.48844231    -0.02700
Br435      Br  0.82668556  0.59650975  0.51576858    -0.03500
Br436      Br  0.74921746  0.69917496  0.50676732     0.00400
C437        C  0.76808983  0.05780418  0.30424157     0.01800
C438        C  0.79995258  0.07592504  0.28486433     0.04700
C439        C  0.83024158  0.10789999  0.29761974    -0.11400
C440        C  0.82868138  0.12156954  0.32987978     0.24000
C441        C  0.79689481  0.10323885  0.34937149    -0.12000
C442        C  0.76655324  0.07153959  0.33648652     0.05400
C443        C  0.85993011  0.15610582  0.34264927     0.27800
C444        C  0.88948195  0.15610439  0.35860267    -0.12700
C445        C  0.92042246  0.18928080  0.36811131     0.05900
C446        C  0.92207748  0.22262691  0.36121711    -0.08600
C447        C  0.89139965  0.22234961  0.34699690     0.06700
C448        C  0.86040022  0.18910167  0.33790565    -0.13000
Br449      Br  0.79498720  0.12200330  0.39355692    -0.05100
Br450      Br  0.80177876  0.05694934  0.24088578     0.00600
Br451      Br  0.96033772  0.18884642  0.39084966     0.01000
Br452      Br  0.81903060  0.18865731  0.31728082    -0.03400
Br453      Br  0.72256170  0.04757618  0.36281601     0.01100
Br454      Br  0.87374829  0.13337550  0.27084351    -0.02700
Br455      Br  0.88782204  0.11054477  0.36632638    -0.03500
Br456      Br  0.89263791  0.26721115  0.33616058     0.00400
C457        C  0.02932159  0.43081684  0.36657807     0.01800
C458        C  0.02702227  0.44398730  0.39890864     0.04700
C459        C  0.02312378  0.47492452  0.40216129    -0.11400
C460        C  0.02149440  0.49281415  0.37315926     0.24000
C461        C  0.02565458  0.48084683  0.34096024    -0.12000
C462        C  0.02974741  0.45004508  0.33763928     0.05400
C463        C  0.01252016  0.52234827  0.37601109     0.27800
C464        C  0.97578297  0.51330290  0.37740394    -0.12700
C465        C  0.96659545  0.54075046  0.37536654     0.05900
C466        C  0.99414735  0.57749228  0.37138171    -0.08600
C467        C  0.03117842  0.58677567  0.37282517     0.06700
C468        C  0.04022630  0.55915763  0.37500933    -0.13000
Br469      Br  0.02378367  0.50572146  0.30126887    -0.05100
Br470      Br  0.03002944  0.42019115  0.43886616     0.00600
Br471      Br  0.91609952  0.52774206  0.37892620     0.01000
Br472      Br  0.09056558  0.57137135  0.37506539    -0.03400
Br473      Br  0.03321054  0.43288207  0.29314444     0.01100
Br474      Br  0.01877795  0.49230562  0.44620629    -0.02700
Br475      Br  0.93794450  0.46290537  0.38070990    -0.03500
Br476      Br  0.06996405  0.63681012  0.36957092     0.00400
C477        C  0.09841410  0.32421569  0.42790635     0.01800
C478        C  0.10266091  0.29344579  0.43014141     0.04700
C479        C  0.12405413  0.29133145  0.45616682    -0.11400
C480        C  0.14089087  0.31971574  0.48037168     0.24000
C481        C  0.13617398  0.35019720  0.47846490    -0.12000
C482        C  0.11541945  0.35268185  0.45205899     0.05400
C483        C  0.16511794  0.31844326  0.50675659     0.27800
C484        C  0.15067866  0.30055088  0.53745984    -0.12700
C485        C  0.17376675  0.29875432  0.56194183     0.05900
C486        C  0.21169897  0.31569154  0.55619063    -0.08600
C487        C  0.22613901  0.33447540  0.52566450     0.06700
C488        C  0.20284192  0.33530693  0.50093028    -0.13000
Br489      Br  0.15788658  0.38827271  0.51243285    -0.05100
Br490      Br  0.07767864  0.25335951  0.39855040     0.00600
Br491      Br  0.15274765  0.27104232  0.60229702     0.01000
Br492      Br  0.22244668  0.35938161  0.45863821    -0.03400
Br493      Br  0.11159870  0.39586632  0.44813725     0.01100
Br494      Br  0.13009322  0.24938634  0.45903798    -0.02700
Br495      Br  0.09909900  0.27828485  0.54571313    -0.03500
Br496      Br  0.27808094  0.36094285  0.51796982     0.00400
C497        C  0.95396238  0.26961126  0.07182936     0.01800
C498        C  0.97601008  0.25613620  0.08457186     0.04700
C499        C  0.98654766  0.26161829  0.11883347    -0.11400
C500        C  0.97611808  0.28139336  0.14035805     0.24000
C501        C  0.95332196  0.29390392  0.12806026    -0.12000
C502        C  0.94175846  0.28749110  0.09411816     0.05400
C503        C  0.98793737  0.28798118  0.17632353     0.27800
C504        C  0.96380455  0.26561530  0.20132807    -0.12700
C505        C  0.97326626  0.27357197  0.23562780     0.05900
C506        C  0.00743667  0.30354348  0.24527092    -0.08600
C507        C  0.03251965  0.32459029  0.22007836     0.06700
C508        C  0.02263613  0.31703117  0.18566407    -0.13000
Br509      Br  0.93861742  0.32059509  0.15778139    -0.05100
Br510      Br  0.99458315  0.23265188  0.05511133     0.00600
Br511      Br  0.93927817  0.24245438  0.26915140     0.01000
Br512      Br  0.05615640  0.34691417  0.15120142    -0.03400
Br513      Br  0.90821914  0.30234511  0.07856873     0.01100
Br514      Br  0.01587878  0.24262389  0.13652555    -0.02700
Br515      Br  0.91759924  0.22396989  0.18826649    -0.03500
Br516      Br  0.07954433  0.36502824  0.23260118     0.00400
C517        C  0.22610101  0.29790229  0.02591229     0.01800
C518        C  0.19223407  0.26948471  0.03708908     0.04700
C519        C  0.15994558  0.26909264  0.02838160    -0.11400
C520        C  0.16154333  0.29728378  0.00883162     0.24000
C521        C  0.19541907  0.32659254  0.99908208    -0.12000
C522        C  0.22764484  0.32672194  0.00718995     0.05400
C523        C  0.12754405  0.29558804  0.99760234     0.27800
C524        C  0.11073222  0.27744273  0.96710281    -0.12700
C525        C  0.07804814  0.27522885  0.95669351     0.05900
C526        C  0.06254210  0.29161604  0.97653354    -0.08600
C527        C  0.07983758  0.31052517  0.00663073     0.06700
C528        C  0.11215944  0.31222695  0.01728331    -0.13000
Br529      Br  0.19743188  0.36605691  0.97376150    -0.05100
Br530      Br  0.19011757  0.23152086  0.06477785     0.00600
Br531      Br  0.05506902  0.25090679  0.91481478     0.01000
Br532      Br  0.13514721  0.33675034  0.05911584    -0.03400
Br533      Br  0.27342116  0.36486670  0.98973976     0.01100
Br534      Br  0.11332768  0.22972613  0.04258299    -0.02700
Br535      Br  0.13258823  0.25566357  0.93972440    -0.03500
Br536      Br  0.05848507  0.33286921  0.03411719     0.00400
C537        C  0.88413558  0.21390178  0.88068001     0.01800
C538        C  0.85122001  0.18083836  0.88599197     0.04700
C539        C  0.82984742  0.15990368  0.85821499    -0.11400
C540        C  0.84096289  0.17183769  0.82499587     0.24000
C541        C  0.87291905  0.20536162  0.81961210    -0.12000
C542        C  0.89442348  0.22636178  0.84723262     0.05400
C543        C  0.82014621  0.14816144  0.79568857     0.27800
C544        C  0.82702811  0.12056746  0.78448150    -0.12700
C545        C  0.80657535  0.09705105  0.75768710     0.05900
C546        C  0.77916538  0.10105915  0.74171561    -0.08600
C547        C  0.77322275  0.12961763  0.75209327     0.06700
C548        C  0.79360279  0.15302289  0.77910896    -0.13000
Br549      Br  0.88727312  0.22215562  0.77406441    -0.05100
Br550      Br  0.83595573  0.16278586  0.93103102     0.00600
Br551      Br  0.81682279  0.05980569  0.74232832     0.01000
Br552      Br  0.78470217  0.19125701  0.79413512    -0.03400
Br553      Br  0.93714263  0.27301467  0.83870037     0.01100
Br554      Br  0.78553905  0.11423599  0.86539269    -0.02700
Br555      Br  0.86443081  0.11490083  0.80624305    -0.03500
Br556      Br  0.73568112  0.13540142  0.73080398     0.00400
C557        C  0.78691800  0.70533539  0.00102602     0.01800
C558        C  0.81726475  0.74011228  0.99419753     0.04700
C559        C  0.85057818  0.74338558  0.98402375    -0.11400
C560        C  0.85399645  0.71222106  0.98118683     0.24000
C561        C  0.82436796  0.67776801  0.98887302    -0.12000
C562        C  0.79078741  0.67411738  0.99831029     0.05400
C563        C  0.88909405  0.71531039  0.97144177     0.27800
C564        C  0.89559809  0.70975682  0.93757884    -0.12700
C565        C  0.92633130  0.70687832  0.92930069     0.05900
C566        C  0.95072876  0.70990660  0.95490475    -0.08600
C567        C  0.94492507  0.71716387  0.98861369     0.06700
C568        C  0.91419160  0.71989163  0.99676843    -0.13000
Br569      Br  0.83003911  0.63539269  0.98605571    -0.05100
Br570      Br  0.81414984  0.78374992  0.99952345     0.00600
Br571      Br  0.93500251  0.69891693  0.88296757     0.01000
Br572      Br  0.90504080  0.72773119  0.04306139    -0.03400
Br573      Br  0.74992288  0.62553105  0.00461799     0.01100
Br574      Br  0.89178894  0.79046620  0.97377655    -0.02700
Br575      Br  0.86158228  0.70487851  0.90291696    -0.03500
Br576      Br  0.97677616  0.71986356  0.02461402     0.00400
C577        C  0.97838160  0.64562060  0.22898627     0.01800
C578        C  0.00751075  0.64068763  0.21813854     0.04700
C579        C  0.01861854  0.64606477  0.18415494    -0.11400
C580        C  0.99955513  0.65434073  0.16024546     0.24000
C581        C  0.96856252  0.65604513  0.17026200    -0.12000
C582        C  0.95834333  0.65242548  0.20456660     0.05400
C583        C  0.01165788  0.66051188  0.12438340     0.27800
C584        C  0.03347946  0.69621271  0.11232476    -0.12700
C585        C  0.04361486  0.70199112  0.07797703     0.05900
C586        C  0.03154183  0.67198671  0.05542813    -0.08600
C587        C  0.01079840  0.63623261  0.06799561     0.06700
C588        C  0.00092149  0.63058771  0.10226157    -0.13000
Br589      Br  0.94032800  0.66359436  0.13664076    -0.05100
Br590      Br  0.03149219  0.62472461  0.24921968     0.00600
Br591      Br  0.07178179  0.75107968  0.06169301     0.01000
Br592      Br  0.97152322  0.58174239  0.11889908    -0.03400
Br593      Br  0.91825349  0.65909173  0.21765075     0.01100
Br594      Br  0.06041836  0.64262504  0.17019108    -0.02700
Br595      Br  0.04815783  0.73713464  0.14285871    -0.03500
Br596      Br  0.99586145  0.59451843  0.03834056     0.00400
C597        C  0.97264915  0.38856063  0.94545095     0.01800
C598        C  0.96724746  0.39962049  0.91371061     0.04700
C599        C  0.97511177  0.43565707  0.90928536    -0.11400
C600        C  0.98820607  0.46057619  0.93664912     0.24000
C601        C  0.99306925  0.44935503  0.96853928    -0.12000
C602        C  0.98528942  0.41337056  0.97296145     0.05400
C603        C  0.99606100  0.49843155  0.93232268     0.27800
C604        C  0.03129009  0.52601524  0.92346416    -0.12700
C605        C  0.03945455  0.56245956  0.92196384     0.05900
C606        C  0.01238107  0.57150153  0.92966888    -0.08600
C607        C  0.97667986  0.54340520  0.93754252     0.06700
C608        C  0.96863370  0.50701622  0.93870000    -0.13000
Br609      Br  0.01042250  0.48350100  0.00607597    -0.05100
Br610      Br  0.94733515  0.36485042  0.87685783     0.00600
Br611      Br  0.08758133  0.59958698  0.90845963     0.01000
Br612      Br  0.92027134  0.46867200  0.95029312    -0.03400
Br613      Br  0.99298176  0.39840403  0.01649584     0.01100
Br614      Br  0.96771439  0.45101749  0.86594455    -0.02700
Br615      Br  0.06844305  0.51362007  0.91421075    -0.03500
Br616      Br  0.93901742  0.55432110  0.94953265     0.00400
C617        C  0.11105479  0.75525225  0.86813892     0.01800
C618        C  0.14948147  0.77301127  0.87117169     0.04700
C619        C  0.17195793  0.79605298  0.84537480    -0.11400
C620        C  0.15649208  0.80066172  0.81576492     0.24000
C621        C  0.11832032  0.78285886  0.81245409    -0.12000
C622        C  0.09570562  0.76100692  0.83872682     0.05400
C623        C  0.18042596  0.82498595  0.78850233     0.27800
C624        C  0.18694183  0.86084727  0.78620648    -0.12700
C625        C  0.21017635  0.88418787  0.76107534     0.05900
C626        C  0.22855289  0.87247426  0.73884091    -0.08600
C627        C  0.22144378  0.83626232  0.74074824     0.06700
C628        C  0.19700471  0.81248980  0.76513294    -0.13000
Br629      Br  0.09710408  0.78859283  0.77161944    -0.05100
Br630      Br  0.17195812  0.76478481  0.90969509     0.00600
Br631      Br  0.21508825  0.93168120  0.75620182     0.01000
Br632      Br  0.18621429  0.76267800  0.76686710    -0.03400
Br633      Br  0.04373251  0.74137930  0.83479799     0.01100
Br634      Br  0.22426577  0.82181653  0.85053875    -0.02700
Br635      Br  0.16440776  0.87822736  0.81804666    -0.03500
Br636      Br  0.24669842  0.81957785  0.71155168     0.00400
loop_ 
_geom_bond_atom_site_label_1 
_geom_bond_atom_site_label_2 
_geom_bond_distance 
_geom_bond_site_symmetry_2 
_ccdc_geom_bond_type 
O1            C4   1.267       .  A
O1           Cd6   2.458       .  S
C2           O11   1.265   1_655  A
C2            O7   1.268       .  A
C2          C566   1.475       .  S
O3            C9   1.274       .  A
O3           Cd6   2.534   1_554  S
C4           O12   1.268       .  A
C4          C606   1.484       .  S
C5           O10   1.270       .  A
C5            O8   1.264       .  A
C5          C617   1.498       .  S
Cd6          O13   2.408       .  S
Cd6          O12   2.458       .  S
Cd6          O11   2.435       .  S
Cd6           O7   2.462   1_455  S
Cd6          O10   2.512       .  S
Cd6           O8   2.460       .  S
C9           O13   1.262   1_554  A
C9          C586   1.487       .  S
O14          C17   1.267       .  A
O14         Cd19   2.449       .  S
C15          O24   1.265   1_455  A
C15          O20   1.264       .  A
C15         C526   1.467       .  S
O16          C22   1.268       .  A
O16         Cd19   2.502   1_554  S
C17          O25   1.267       .  A
C17         C597   1.471       .  S
C18          O23   1.268       .  A
C18          O21   1.263       .  A
C18         C537   1.492       .  S
Cd19         O26   2.441   1_556  S
Cd19         O25   2.447       .  S
Cd19         O24   2.453       .  S
Cd19         O20   2.438   1_655  S
Cd19         O23   2.506       .  S
Cd19         O21   2.464       .  S
C22          O26   1.262       .  A
C22         C497   1.486       .  S
O27          C30   1.266       .  A
O27         Cd32   2.456       .  S
C28          O37   1.264       .  A
C28          O33   1.267       .  A
C28         C446   1.479       .  S
O29          C35   1.272       .  A
O29         Cd32   2.515       .  S
C30          O38   1.268       .  A
C30         C457   1.481       .  S
C31          O36   1.269       .  A
C31          O34   1.263       .  A
C31         C477   1.481       .  S
Cd32         O39   2.435   1_455  S
Cd32         O38   2.480       .  S
Cd32         O37   2.436   1_455  S
Cd32         O33   2.463   1_455  S
Cd32         O36   2.503       .  S
Cd32         O34   2.452       .  S
C35          O39   1.263   1_455  A
C35         C506   1.485       .  S
O40          C43   1.266   1_455  A
O40         Cd45   2.477   1_455  S
C41          O50   1.266   1_455  A
C41          O46   1.268       .  A
C41         C397   1.479       .  S
O42          C48   1.273       .  A
O42         Cd45   2.522       .  S
C43          O51   1.266       .  A
C43         C466   1.486       .  S
C44          O49   1.271       .  A
C44          O47   1.264       .  A
C44         C417   1.494       .  S
Cd45         O52   2.413       .  S
Cd45         O51   2.447       .  S
Cd45         O50   2.452       .  S
Cd45         O46   2.450   1_655  S
Cd45         O49   2.520       .  S
Cd45         O47   2.454       .  S
C48          O52   1.262       .  A
C48         C577   1.493       .  S
O53          C56   1.267       .  A
O53         Cd58   2.477       .  S
C54          O63   1.268       .  A
C54          O59   1.269       .  A
C54         C337   1.483       .  S
O55          C61   1.266       .  A
O55         Cd58   2.514       .  S
C56          O64   1.263       .  A
C56         C377   1.477       .  S
C57          O62   1.268       .  A
C57          O60   1.263       .  A
C57         C486   1.489       .  S
Cd58         O65   2.435       .  S
Cd58         O64   2.441       .  S
Cd58         O63   2.454       .  S
Cd58         O59   2.449       .  S
Cd58         O62   2.501       .  S
Cd58         O60   2.458       .  S
C61          O65   1.258       .  A
C61         C366   1.473       .  S
O66          C69   1.266       .  A
O66         Cd71   2.464       .  S
C67          O76   1.265       .  A
C67          O72   1.267       .  A
C67         C306   1.477       .  S
O68          C74   1.272       .  A
O68         Cd71   2.514       .  S
C69          O77   1.266       .  A
C69         C386   1.487       .  S
C70          O75   1.269       .  A
C70          O73   1.264       .  A
C70         C426   1.492       .  S
Cd71         O78   2.390       .  S
Cd71         O77   2.454       .  S
Cd71         O76   2.448       .  S
Cd71         O72   2.470       .  S
Cd71         O75   2.510       .  S
Cd71         O73   2.452       .  S
C74          O78   1.262       .  A
C74         C326   1.483       .  S
O79          C82   1.265       .  A
O79         Cd84   2.456       .  S
C80          O89   1.267       .  A
C80          O85   1.267       .  A
C80         C517   1.474       .  S
O81          C87   1.270       .  A
O81         Cd84   2.506   1_556  S
C82          O90   1.264       .  A
C82         C257   1.481       .  S
C83          O88   1.268       .  A
C83          O86   1.265       .  A
C83         C286   1.486       .  S
Cd84         O91   2.423   1_554  S
Cd84         O90   2.456       .  S
Cd84         O89   2.447       .  S
Cd84         O85   2.443       .  S
Cd84         O88   2.482       .  S
Cd84         O86   2.457       .  S
C87          O91   1.260       .  A
C87         C357   1.485       .  S
O92          C95   1.266       .  A
O92         Cd97   2.473       .  S
C93         O102   1.265   1_554  A
C93          O98   1.268       .  A
C93         C557   1.485       .  S
O94         C100   1.274       .  A
O94         Cd97   2.507   1_556  S
C95         O103   1.264       .  A
C95         C266   1.488       .  S
C96         O101   1.270       .  A
C96          O99   1.263       .  A
C96         C237   1.484       .  S
Cd97        O104   2.410   1_554  S
Cd97        O103   2.448       .  S
Cd97        O102   2.438   1_554  S
Cd97         O98   2.455       .  S
Cd97        O101   2.511       .  S
Cd97         O99   2.446       .  S
C100        O104   1.263       .  A
C100        C317   1.488       .  S
O105        C108   1.267       .  A
O105       Cd110   2.463       .  S
C106        O115   1.263   1_545  A
C106        O111   1.264       .  A
C106        C346   1.482       .  S
O107        C113   1.269       .  A
O107       Cd110   2.517       .  S
C108        O116   1.268       .  A
C108        C217   1.489       .  S
C109        O114   1.271       .  A
C109        O112   1.264       .  A
C109        C626   1.491       .  S
Cd110       O117   2.432       .  S
Cd110       O116   2.461       .  S
Cd110       O115   2.451       .  S
Cd110       O111   2.465   1_565  S
Cd110       O114   2.514       .  S
Cd110       O112   2.442       .  S
C113        O117   1.262       .  A
C113        C197   1.486       .  S
O118        C121   1.267   1_565  A
O118       Cd123   2.473   1_565  S
C119        O128   1.264       .  A
C119        O124   1.267       .  A
C119        C297   1.487       .  S
O120        C126   1.271       .  A
O120       Cd123   2.513       .  S
C121        O129   1.266       .  A
C121        C226   1.480       .  S
C122        O127   1.268       .  A
C122        O125   1.263       .  A
C122        C546   1.483       .  S
Cd123       O130   2.420   1_545  S
Cd123       O129   2.456       .  S
Cd123       O128   2.448   1_545  S
Cd123       O124   2.473   1_545  S
Cd123       O127   2.511       .  S
Cd123       O125   2.452       .  S
C126        O130   1.263   1_545  A
C126        C186   1.483       .  S
O131        C134   1.266   1_565  A
O131       Cd136   2.459   1_565  S
C132        O141   1.262       .  A
C132        O137   1.267       .  A
C132        C406   1.480       .  S
O133        C139   1.270       .  A
O133       Cd136   2.503       .  S
C134        O142   1.268       .  A
C134        C166   1.476   1_545  S
C135        O140   1.268       .  A
C135        O138   1.264       .  A
C135        C277   1.481       .  S
Cd136       O143   2.450   1_545  S
Cd136       O142   2.471       .  S
Cd136       O141   2.442   1_545  S
Cd136       O137   2.469   1_545  S
Cd136       O140   2.499       .  S
Cd136       O138   2.469       .  S
C139        O143   1.263   1_545  A
C139        C206   1.482       .  S
O144        C147   1.266       .  A
O144       Cd149   2.451       .  S
C145        O154   1.263   1_545  A
C145        O150   1.266       .  A
C145        C437   1.471       .  S
O146        C152   1.269       .  A
O146       Cd149   2.491       .  S
C147        O155   1.267       .  A
C147        C157   1.473       .  S
C148        O153   1.267       .  A
C148        O151   1.266       .  A
C148        C246   1.487       .  S
Cd149       O156   2.426       .  S
Cd149       O155   2.459       .  S
Cd149       O154   2.458       .  S
Cd149       O150   2.470   1_565  S
Cd149       O153   2.488       .  S
Cd149       O151   2.486       .  S
C152        O156   1.263       .  A
C152        C177   1.485       .  S
C157        C158   1.410       .  A
C157        C162   1.410       .  A
C158        C159   1.408       .  A
C158       Br170   1.928       .  S
C159        C160   1.409       .  A
C159       Br174   1.928       .  S
C160        C163   1.483       .  S
C160        C161   1.409   1_565  A
C161        C162   1.405   1_545  A
C161       Br169   1.931       .  S
C162       Br173   1.932   1_565  S
C163        C164   1.408   1_565  A
C163        C168   1.408       .  A
C164        C165   1.408       .  A
C164       Br175   1.929       .  S
C165        C166   1.410   1_545  A
C165       Br171   1.925       .  S
C166        C167   1.411       .  A
C167        C168   1.406       .  A
C167       Br176   1.930       .  S
C168       Br172   1.931       .  S
C177        C178   1.415       .  A
C177        C182   1.417       .  A
C178        C179   1.409       .  A
C178       Br190   1.932       .  S
C179        C180   1.408       .  A
C179       Br194   1.930       .  S
C180        C183   1.486       .  S
C180        C181   1.407       .  A
C181        C182   1.409       .  A
C181       Br189   1.931       .  S
C182       Br193   1.932       .  S
C183        C184   1.411   1_565  A
C183        C188   1.406       .  A
C184        C185   1.412       .  A
C184       Br195   1.929       .  S
C185        C186   1.412       .  A
C185       Br191   1.928       .  S
C186        C187   1.416   1_545  A
C187        C188   1.405       .  A
C187       Br196   1.933       .  S
C188       Br192   1.931       .  S
C197        C198   1.413       .  A
C197        C202   1.417   1_565  A
C198        C199   1.412       .  A
C198       Br210   1.928       .  S
C199        C200   1.410       .  A
C199       Br214   1.929       .  S
C200        C203   1.489       .  S
C200        C201   1.406   1_565  A
C201        C202   1.407       .  A
C201       Br209   1.932       .  S
C202       Br213   1.935       .  S
C203        C204   1.409       .  A
C203        C208   1.409       .  A
C204        C205   1.409   1_565  A
C204       Br215   1.930       .  S
C205        C206   1.412       .  A
C205       Br211   1.929       .  S
C206        C207   1.413       .  A
C207        C208   1.410   1_545  A
C207       Br216   1.930       .  S
C208       Br212   1.930       .  S
C217        C218   1.416       .  A
C217        C222   1.419   1_565  A
C218        C219   1.409       .  A
C218       Br230   1.932       .  S
C219        C220   1.407       .  A
C219       Br234   1.930       .  S
C220        C223   1.485       .  S
C220        C221   1.406   1_565  A
C221        C222   1.409       .  A
C221       Br229   1.932       .  S
C222       Br233   1.933       .  S
C223        C224   1.409       .  A
C223        C228   1.408       .  A
C224        C225   1.411   1_565  A
C224       Br235   1.928       .  S
C225        C226   1.413       .  A
C225       Br231   1.929       .  S
C226        C227   1.413       .  A
C227        C228   1.405   1_545  A
C227       Br236   1.932       .  S
C228       Br232   1.932       .  S
C237        C238   1.414       .  A
C237        C242   1.412       .  A
C238        C239   1.410       .  A
C238       Br250   1.932       .  S
C239        C240   1.410       .  A
C239       Br254   1.931       .  S
C240        C243   1.492       .  S
C240        C241   1.411       .  A
C241        C242   1.411       .  A
C241       Br249   1.929       .  S
C242       Br253   1.929       .  S
C243        C244   1.409       .  A
C243        C248   1.411       .  A
C244        C245   1.411       .  A
C244       Br255   1.931       .  S
C245        C246   1.414       .  A
C245       Br251   1.929       .  S
C246        C247   1.412       .  A
C247        C248   1.411       .  A
C247       Br256   1.930       .  S
C248       Br252   1.930       .  S
C257        C258   1.415       .  A
C257        C262   1.416       .  A
C258        C259   1.408       .  A
C258       Br270   1.932       .  S
C259        C260   1.407       .  A
C259       Br274   1.929       .  S
C260        C263   1.482       .  S
C260        C261   1.407       .  A
C261        C262   1.405       .  A
C261       Br269   1.933   1_554  S
C262       Br273   1.932   1_554  S
C263        C264   1.406       .  A
C263        C268   1.406       .  A
C264        C265   1.407       .  A
C264       Br275   1.933       .  S
C265        C266   1.418       .  A
C265       Br271   1.933       .  S
C266        C267   1.419       .  A
C267        C268   1.408       .  A
C267       Br276   1.932       .  S
C268       Br272   1.932       .  S
C277        C278   1.410       .  A
C277        C282   1.410       .  A
C278        C279   1.410       .  A
C278       Br290   1.929       .  S
C279        C280   1.410       .  A
C279       Br294   1.929       .  S
C280        C283   1.489       .  S
C280        C281   1.409       .  A
C281        C282   1.409       .  A
C281       Br289   1.930       .  S
C282       Br293   1.925       .  S
C283        C284   1.409       .  A
C283        C288   1.408       .  A
C284        C285   1.410       .  A
C284       Br295   1.929       .  S
C285        C286   1.414       .  A
C285       Br291   1.931       .  S
C286        C287   1.416       .  A
C287        C288   1.409       .  A
C287       Br296   1.933       .  S
C288       Br292   1.930       .  S
C297        C298   1.418       .  A
C297        C302   1.417       .  A
C298        C299   1.407       .  A
C298       Br310   1.933       .  S
C299        C300   1.407       .  A
C299       Br314   1.932       .  S
C300        C303   1.484       .  S
C300        C301   1.407       .  A
C301        C302   1.409       .  A
C301       Br309   1.930       .  S
C302       Br313   1.932       .  S
C303        C304   1.407       .  A
C303        C308   1.410       .  A
C304        C305   1.406       .  A
C304       Br315   1.931       .  S
C305        C306   1.414       .  A
C305       Br311   1.933       .  S
C306        C307   1.410       .  A
C307        C308   1.409       .  A
C307       Br316   1.929       .  S
C308       Br312   1.929       .  S
C317        C318   1.415       .  A
C317        C322   1.418       .  A
C318        C319   1.410       .  A
C318       Br330   1.930       .  S
C319        C320   1.409       .  A
C319       Br334   1.932       .  S
C320        C323   1.485       .  S
C320        C321   1.405       .  A
C321        C322   1.407       .  A
C321       Br329   1.932       .  S
C322       Br333   1.934       .  S
C323        C324   1.406       .  A
C323        C328   1.410       .  A
C324        C325   1.405       .  A
C324       Br335   1.931       .  S
C325        C326   1.416       .  A
C325       Br331   1.934       .  S
C326        C327   1.413       .  A
C327        C328   1.411       .  A
C327       Br336   1.929       .  S
C328       Br332   1.930       .  S
C337        C338   1.419       .  A
C337        C342   1.413       .  A
C338        C339   1.407       .  A
C338       Br350   1.933       .  S
C339        C340   1.405       .  A
C339       Br354   1.932       .  S
C340        C343   1.481       .  S
C340        C341   1.408       .  A
C341        C342   1.407       .  A
C341       Br349   1.930       .  S
C342       Br353   1.930       .  S
C343        C344   1.408       .  A
C343        C348   1.405       .  A
C344        C345   1.408       .  A
C344       Br355   1.930       .  S
C345        C346   1.414       .  A
C345       Br351   1.931       .  S
C346        C347   1.418       .  A
C347        C348   1.406       .  A
C347       Br356   1.934       .  S
C348       Br352   1.932       .  S
C357        C358   1.415       .  A
C357        C362   1.418       .  A
C358        C359   1.410       .  A
C358       Br370   1.931       .  S
C359        C360   1.408       .  A
C359       Br374   1.930       .  S
C360        C363   1.484       .  S
C360        C361   1.405       .  A
C361        C362   1.406       .  A
C361       Br369   1.932       .  S
C362       Br373   1.932       .  S
C363        C364   1.407       .  A
C363        C368   1.412       .  A
C364        C365   1.405       .  A
C364       Br375   1.931       .  S
C365        C366   1.412       .  A
C365       Br371   1.933       .  S
C366        C367   1.407       .  A
C367        C368   1.410       .  A
C367       Br376   1.927       .  S
C368       Br372   1.928       .  S
C377        C378   1.411       .  A
C377        C382   1.413       .  A
C378        C379   1.408       .  A
C378       Br390   1.930       .  S
C379        C380   1.409       .  A
C379       Br394   1.929       .  S
C380        C383   1.483       .  S
C380        C381   1.409       .  A
C381        C382   1.406       .  A
C381       Br389   1.932       .  S
C382       Br393   1.933       .  S
C383        C384   1.407       .  A
C383        C388   1.406       .  A
C384        C385   1.408       .  A
C384       Br395   1.932       .  S
C385        C386   1.416       .  A
C385       Br391   1.932       .  S
C386        C387   1.419       .  A
C387        C388   1.408       .  A
C387       Br396   1.933       .  S
C388       Br392   1.932       .  S
C397        C398   1.411       .  A
C397        C402   1.417       .  A
C398        C399   1.406       .  A
C398       Br410   1.930       .  S
C399        C400   1.408       .  A
C399       Br414   1.930       .  S
C400        C403   1.481       .  S
C400        C401   1.406       .  A
C401        C402   1.407       .  A
C401       Br409   1.932       .  S
C402       Br413   1.933       .  S
C403        C404   1.406       .  A
C403        C408   1.407       .  A
C404        C405   1.408       .  A
C404       Br415   1.929       .  S
C405        C406   1.415       .  A
C405       Br411   1.931       .  S
C406        C407   1.414       .  A
C407        C408   1.405       .  A
C407       Br416   1.933       .  S
C408       Br412   1.932       .  S
C417        C418   1.417       .  A
C417        C422   1.416       .  A
C418        C419   1.410       .  A
C418       Br430   1.932       .  S
C419        C420   1.409       .  A
C419       Br434   1.932       .  S
C420        C423   1.495       .  S
C420        C421   1.411       .  A
C421        C422   1.414       .  A
C421       Br429   1.930       .  S
C422       Br433   1.929       .  S
C423        C424   1.411       .  A
C423        C428   1.409       .  A
C424        C425   1.413       .  A
C424       Br435   1.930       .  S
C425        C426   1.415       .  A
C425       Br431   1.931       .  S
C426        C427   1.417       .  A
C427        C428   1.409       .  A
C427       Br436   1.934       .  S
C428       Br432   1.931       .  S
C437        C438   1.406       .  A
C437        C442   1.412       .  A
C438        C439   1.408       .  A
C438       Br450   1.927       .  S
C439        C440   1.411       .  A
C439       Br454   1.929       .  S
C440        C443   1.481       .  S
C440        C441   1.406       .  A
C441        C442   1.405       .  A
C441       Br449   1.931       .  S
C442       Br453   1.929       .  S
C443        C444   1.407       .  A
C443        C448   1.407       .  A
C444        C445   1.407       .  A
C444       Br455   1.930       .  S
C445        C446   1.413       .  A
C445       Br451   1.931       .  S
C446        C447   1.416       .  A
C447        C448   1.406       .  A
C447       Br456   1.934       .  S
C448       Br452   1.932       .  S
C457        C458   1.413       .  A
C457        C462   1.412       .  A
C458        C459   1.409       .  A
C458       Br470   1.929       .  S
C459        C460   1.408       .  A
C459       Br474   1.929       .  S
C460        C463   1.486       .  S
C460        C461   1.410       .  A
C461        C462   1.408       .  A
C461       Br469   1.931       .  S
C462       Br473   1.931       .  S
C463        C464   1.408   1_455  A
C463        C468   1.408       .  A
C464        C465   1.407       .  A
C464       Br475   1.931       .  S
C465        C466   1.414       .  A
C465       Br471   1.932       .  S
C466        C467   1.417   1_655  A
C467        C468   1.410       .  A
C467       Br476   1.932       .  S
C468       Br472   1.930       .  S
C477        C478   1.410       .  A
C477        C482   1.411       .  A
C478        C479   1.410       .  A
C478       Br490   1.929       .  S
C479        C480   1.410       .  A
C479       Br494   1.929       .  S
C480        C483   1.490       .  S
C480        C481   1.409       .  A
C481        C482   1.409       .  A
C481       Br489   1.929       .  S
C482       Br493   1.930       .  S
C483        C484   1.410       .  A
C483        C488   1.408       .  A
C484        C485   1.412       .  A
C484       Br495   1.929       .  S
C485        C486   1.415       .  A
C485       Br491   1.931       .  S
C486        C487   1.417       .  A
C487        C488   1.408       .  A
C487       Br496   1.932       .  S
C488       Br492   1.932       .  S
C497        C498   1.418       .  A
C497        C502   1.414       .  A
C498        C499   1.410       .  A
C498       Br510   1.932       .  S
C499        C500   1.407       .  A
C499       Br514   1.931   1_655  S
C500        C503   1.488       .  S
C500        C501   1.409       .  A
C501        C502   1.408       .  A
C501       Br509   1.931       .  S
C502       Br513   1.931       .  S
C503        C504   1.406       .  A
C503        C508   1.412   1_655  A
C504        C505   1.406       .  A
C504       Br515   1.933       .  S
C505        C506   1.416   1_655  A
C505       Br511   1.927       .  S
C506        C507   1.411       .  A
C507        C508   1.412       .  A
C507       Br516   1.928       .  S
C508       Br512   1.929       .  S
C517        C518   1.410       .  A
C517        C522   1.414       .  A
C518        C519   1.407       .  A
C518       Br530   1.928       .  S
C519        C520   1.408       .  A
C519       Br534   1.929       .  S
C520        C523   1.479   1_554  S
C520        C521   1.406   1_554  A
C521        C522   1.404   1_556  A
C521       Br529   1.931       .  S
C522       Br533   1.933   1_554  S
C523        C524   1.411       .  A
C523        C528   1.407   1_556  A
C524        C525   1.406       .  A
C524       Br535   1.929       .  S
C525        C526   1.406       .  A
C525       Br531   1.929       .  S
C526        C527   1.411   1_556  A
C527        C528   1.404       .  A
C527       Br536   1.933       .  S
C528       Br532   1.930       .  S
C537        C538   1.415       .  A
C537        C542   1.418       .  A
C538        C539   1.412       .  A
C538       Br550   1.930       .  S
C539        C540   1.410       .  A
C539       Br554   1.930       .  S
C540        C543   1.490       .  S
C540        C541   1.407       .  A
C541        C542   1.409       .  A
C541       Br549   1.931       .  S
C542       Br553   1.932       .  S
C543        C544   1.409       .  A
C543        C548   1.410       .  A
C544        C545   1.408       .  A
C544       Br555   1.930       .  S
C545        C546   1.412       .  A
C545       Br551   1.930       .  S
C546        C547   1.413       .  A
C547        C548   1.412       .  A
C547       Br556   1.930       .  S
C548       Br552   1.929       .  S
C557        C558   1.418   1_554  A
C557        C562   1.418   1_554  A
C558        C559   1.408       .  A
C558       Br570   1.932       .  S
C559        C560   1.405       .  A
C559       Br574   1.930       .  S
C560        C563   1.479       .  S
C560        C561   1.406       .  A
C561        C562   1.405       .  A
C561       Br569   1.934       .  S
C562       Br573   1.935   1_556  S
C563        C564   1.409       .  A
C563        C568   1.405       .  A
C564        C565   1.408       .  A
C564       Br575   1.929       .  S
C565        C566   1.410       .  A
C565       Br571   1.929       .  S
C566        C567   1.415       .  A
C567        C568   1.403       .  A
C567       Br576   1.931   1_556  S
C568       Br572   1.932   1_556  S
C577        C578   1.419   1_655  A
C577        C582   1.416       .  A
C578        C579   1.409       .  A
C578       Br590   1.934       .  S
C579        C580   1.406   1_455  A
C579       Br594   1.931       .  S
C580        C583   1.491   1_655  S
C580        C581   1.409       .  A
C581        C582   1.412       .  A
C581       Br589   1.930       .  S
C582       Br593   1.929       .  S
C583        C584   1.411       .  A
C583        C588   1.407       .  A
C584        C585   1.413       .  A
C584       Br595   1.931       .  S
C585        C586   1.414       .  A
C585       Br591   1.929       .  S
C586        C587   1.416       .  A
C587        C588   1.408       .  A
C587       Br596   1.933   1_455  S
C588       Br592   1.931   1_455  S
C597        C598   1.408       .  A
C597        C602   1.410       .  A
C598        C599   1.407       .  A
C598       Br610   1.928       .  S
C599        C600   1.408       .  A
C599       Br614   1.928       .  S
C600        C603   1.481       .  S
C600        C601   1.409       .  A
C601        C602   1.406       .  A
C601       Br609   1.931   1_656  S
C602       Br613   1.932   1_556  S
C603        C604   1.407   1_655  A
C603        C608   1.406       .  A
C604        C605   1.408       .  A
C604       Br615   1.931       .  S
C605        C606   1.415       .  A
C605       Br611   1.930       .  S
C606        C607   1.417   1_455  A
C607        C608   1.407       .  A
C607       Br616   1.932       .  S
C608       Br612   1.932       .  S
C617        C618   1.417       .  A
C617        C622   1.420       .  A
C618        C619   1.413       .  A
C618       Br630   1.930       .  S
C619        C620   1.410       .  A
C619       Br634   1.930       .  S
C620        C623   1.495       .  S
C620        C621   1.408       .  A
C621        C622   1.411       .  A
C621       Br629   1.932       .  S
C622       Br633   1.934       .  S
C623        C624   1.409       .  A
C623        C628   1.411       .  A
C624        C625   1.409       .  A
C624       Br635   1.931       .  S
C625        C626   1.416       .  A
C625       Br631   1.934       .  S
C626        C627   1.414       .  A
C627        C628   1.413       .  A
C627       Br636   1.929       .  S
C628       Br632   1.929       .  S
