geometry optimzed in LAMMPS
_audit_creation_date              2020-12-01 
_audit_creation_method            'lammps2cif' 
_symmetry_space_group_name_H-M    'P1' 
_symmetry_Int_Tables_number       1 
_symmetry_cell_setting            triclinic 
loop_ 
_symmetry_equiv_pos_as_xyz 
  x,y,z 
_cell_length_a                    27.4129281 
_cell_length_b                    27.35309022392068 
_cell_length_c                    42.581940864359574 
_cell_angle_alpha                 88.97132633418182 
_cell_angle_beta                  90.18702047743841 
_cell_angle_gamma                 90.01233536180865 
loop_ 
_atom_site_label 
_atom_site_type_symbol 
_atom_site_fract_x 
_atom_site_fract_y 
_atom_site_fract_z 
_atom_site_charge 
O1          O  0.20696629  0.20360819  0.43982223    -0.79900
O2          O  0.14022402  0.37502765  0.36435044    -0.64500
O3          O  0.21756549  0.27317961  0.39746714    -1.11200
C4          C  0.22785508  0.36989151  0.48945065     1.07000
O5          O  0.18131897  0.43665151  0.38455735    -0.77800
O6          O  0.26125638  0.41302005  0.41745360    -0.65300
Ni7        Ni  0.19622714  0.20762163  0.39600132     1.34900
C8          C  0.29128264  0.37881456  0.41223729     0.85800
O9          O  0.18029262  0.29365822  0.34034356    -0.78300
O10         O  0.18909112  0.21275920  0.35132770    -0.88600
C11         C  0.15542237  0.41861010  0.36255688     0.85300
O12         O  0.12777492  0.21539433  0.40278488    -0.66800
O13         O  0.20908748  0.40483725  0.47296013    -0.86100
C14         C  0.09931082  0.25138076  0.39850000     0.86200
C15         C  0.19128352  0.24983774  0.33258413     1.07700
H16         H  0.15042926  0.34141113  0.43353752     0.39500
O17         O  0.18086845  0.34814695  0.42292394    -1.08700
O18         O  0.28380205  0.33426278  0.42013091    -0.65400
Ni19       Ni  0.22792776  0.30012827  0.43774189     1.26300
O20         O  0.11505577  0.29323041  0.39002755    -0.65600
O21         O  0.23784735  0.32834478  0.47804383    -0.77900
C22         C  0.25209889  0.20466659  0.44618935     0.85600
O23         O  0.27131509  0.24667373  0.44942497    -0.65100
Ni24       Ni  0.19444502  0.41637842  0.42851447     1.27400
Ni25       Ni  0.17768281  0.32262428  0.38104502     1.26100
H26         H  0.24797256  0.27431741  0.38604305     0.40100
O27         O  0.30564856  0.03920129  0.16624315    -0.79900
O28         O  0.21305237  0.22568213  0.10262551    -0.64500
O29         O  0.30623517  0.12625456  0.12694169    -1.11200
C30         C  0.29823262  0.22059452  0.21868811     1.07000
O31         O  0.27424605  0.27357753  0.11260128    -0.77800
O32         O  0.35562588  0.26214569  0.14822193    -0.65300
Ni33       Ni  0.29211358  0.05793329  0.12214157     1.34900
C34         C  0.38579945  0.22726001  0.15105787     0.85800
O35         O  0.24790893  0.14559357  0.07307159    -0.78300
O36         O  0.27706963  0.06911475  0.07756820    -0.88600
C37         C  0.22942984  0.26881497  0.10589445     0.85300
O38         O  0.22518229  0.06030434  0.13380823    -0.66800
O39         O  0.29674380  0.25842797  0.20054194    -0.86100
C40         C  0.19485918  0.09441392  0.13854198     0.86200
C41         C  0.25854780  0.10447320  0.06123145     1.07700
H42         H  0.23920217  0.19674468  0.16574511     0.39500
O43         O  0.26896114  0.19973947  0.15375607    -1.08700
O44         O  0.37228155  0.18400376  0.15842638    -0.65400
Ni45       Ni  0.31153965  0.15115101  0.16868258     1.26300
O46         O  0.20282879  0.13885177  0.13093169    -0.65600
O47         O  0.31058961  0.17784126  0.20987275    -0.77900
C48         C  0.33362852  0.05703549  0.18724098     0.85600
O49         O  0.35149734  0.09930776  0.18356293    -0.65100
Ni50       Ni  0.28716475  0.26621844  0.15622696     1.27400
Ni51       Ni  0.25805492  0.17355779  0.11335104     1.26100
H52         H  0.33605575  0.13308004  0.11565867     0.40100
O53         O  0.28614668  0.92384302  0.41565834    -0.79900
O54         O  0.47430283  0.01913579  0.36306691    -0.64500
O55         O  0.37474862  0.92297481  0.38025230    -1.11200
C56         C  0.46854849  0.91796134  0.47219850     1.07000
O57         O  0.52272132  0.95615903  0.36918873    -0.77800
O58         O  0.50152719  0.86793356  0.39466773    -0.65300
Ni59       Ni  0.30732800  0.93699374  0.37224632     1.34900
C60         C  0.46733764  0.83806764  0.40069531     0.85800
O61         O  0.39431639  0.99042496  0.33004947    -0.78300
O62         O  0.32184284  0.95260548  0.32825684    -0.88600
C63         C  0.51746867  0.00186074  0.36478069     0.85300
O64         O  0.30783750  0.00439316  0.38258778    -0.66800
O65         O  0.50378315  0.90843310  0.45358887    -0.86100
C66         C  0.34002414  0.03286649  0.39348329     0.86200
C67         C  0.35601345  0.97772582  0.31518656     1.07700
H68         H  0.44780684  0.98394561  0.42293804     0.39500
O69         O  0.44820114  0.95548603  0.40979617    -1.08700
O70         O  0.42750985  0.85183146  0.41302502    -0.65400
Ni71       Ni  0.39749889  0.91399605  0.42279967     1.26300
O72         O  0.38566541  0.02461133  0.39083160    -0.65600
O73         O  0.42373542  0.91229194  0.46443942    -0.77900
C74         C  0.30174394  0.89529965  0.43758061     0.85600
O75         O  0.34338711  0.87571638  0.43607701    -0.65100
Ni76       Ni  0.51285290  0.93157262  0.41095256     1.27400
Ni77       Ni  0.42184756  0.97310130  0.37015046     1.26100
H78         H  0.38295863  0.89433236  0.36835504     0.40100
O79         O  0.45317310  0.01155966  0.68033274    -0.79900
O80         O  0.62782679  0.09346942  0.61045622    -0.64500
O81         O  0.52580036  0.01236284  0.63851441    -1.11200
C82         C  0.62262803  0.99467177  0.73129923     1.07000
O83         O  0.68758707  0.04649586  0.62785273    -0.77800
O84         O  0.66784093  0.96550746  0.66035544    -0.65300
Ni85       Ni  0.46056518  0.03501364  0.63806576     1.34900
C86         C  0.63433002  0.93700262  0.65126078     0.85800
O87         O  0.54728277  0.05579986  0.58332137    -0.78300
O88         O  0.46762753  0.05611654  0.59490768    -0.88600
C89         C  0.66919106  0.07441339  0.60648669     0.85300
O90         O  0.47066718  0.10034502  0.65265619    -0.66800
O91         O  0.65707739  0.01697508  0.71643653    -0.86100
C92         C  0.50485117  0.13030592  0.64644437     0.86200
C93         C  0.50293015  0.04571979  0.57657110     1.07700
H94         H  0.59329375  0.07492367  0.67810626     0.39500
O95         O  0.60065707  0.04617034  0.66617411    -1.08700
O96         O  0.58926904  0.94427889  0.65684324    -0.65400
Ni97       Ni  0.55427638  0.99608893  0.67779880     1.26300
O98         O  0.54494607  0.11622956  0.63463196    -0.65600
O99         O  0.58367036  0.98079860  0.71762706    -0.77900
C100        C  0.45940355  0.96594524  0.68498477     0.85600
O101        O  0.50287419  0.94956376  0.68644386    -0.65100
Ni102      Ni  0.66893824  0.03249747  0.67188392     1.27400
Ni103      Ni  0.57527134  0.05444147  0.62441813     1.26100
H104        H  0.52621142  0.98363652  0.62562420     0.40100
O105        O  0.02636138  0.96181508  0.17997348    -0.79900
O106        O  0.85080280  0.87545485  0.11359423    -0.64500
O107        O  0.95156194  0.95959968  0.13909484    -1.11200
C108        C  0.85840643  0.97927581  0.23204045     1.07000
O109        O  0.78977974  0.91846147  0.13230913    -0.77800
O110        O  0.81011118  0.00225295  0.16130136    -0.65300
Ni111      Ni  0.01685766  0.93645345  0.13894750     1.34900
C112        C  0.84228946  0.03362963  0.15373953     0.85800
O113        O  0.92827175  0.91661946  0.08515227    -0.78300
O114        O  0.00769593  0.91204466  0.09728560    -0.88600
C115        C  0.80769814  0.89107995  0.11111710     0.85300
O116        O  0.00720019  0.87237382  0.15686697    -0.66800
O117        O  0.82384737  0.95552985  0.21865824    -0.86100
C118        C  0.97411606  0.84198270  0.14993021     0.86200
C119        C  0.97310202  0.92381811  0.07842752     1.07700
H120        H  0.88768907  0.89498138  0.18103550     0.39500
O121        O  0.87904818  0.92371335  0.16873640    -1.08700
O122        O  0.88775410  0.02691832  0.15848860    -0.65400
Ni123      Ni  0.92521134  0.97489035  0.17850723     1.26300
O124        O  0.93457115  0.85569647  0.13688847    -0.65600
O125        O  0.89827398  0.98971141  0.21829317    -0.77900
C126        C  0.01947183  0.00728862  0.18321671     0.85600
O127        O  0.97583988  0.02279450  0.18497637    -0.65100
Ni128      Ni  0.81078276  0.93590775  0.17527195     1.27400
Ni129      Ni  0.90222917  0.91660943  0.12648949     1.26100
H130        H  0.95042112  0.98848977  0.12568889     0.40100
O131        O  0.20035056  0.04836902  0.91352651    -0.79900
O132        O  0.00513186  0.96298538  0.85725819    -0.64500
O133        O  0.10985927  0.05055790  0.87847087    -1.11200
C134        C  0.01876795  0.04540811  0.97243925     1.07000
O135        O  0.95943157  0.02551707  0.86789546    -0.77800
O136        O  0.97919569  0.10617975  0.90139116    -0.65300
Ni137      Ni  0.17689381  0.03189945  0.87138723     1.34900
C138        C  0.01498786  0.13459446  0.90562876     0.85800
O139        O  0.08311483  0.99463766  0.82552607    -0.78300
O140        O  0.16266295  0.01245745  0.82828257    -0.88600
C141        C  0.96286141  0.98083579  0.86088646     0.85300
O142        O  0.17089070  0.96687522  0.88705135    -0.66800
O143        O  0.98084785  0.04915367  0.95492268    -0.86100
C144        C  0.13578997  0.93737750  0.89137350     0.86200
C145        C  0.12507091  0.99760654  0.81323450     1.07700
H146        H  0.03707417  0.98545237  0.91923292     0.39500
O147        O  0.03564840  0.01591013  0.90739399    -1.08700
O148        O  0.05718471  0.11843207  0.91302152    -0.65400
Ni149      Ni  0.08727433  0.05507412  0.92114503     1.26300
O150        O  0.09207826  0.94685469  0.88291452    -0.65600
O151        O  0.06244482  0.05290326  0.96297413    -0.77900
C152        C  0.18451473  0.07531813  0.93544163     0.85600
O153        O  0.14148114  0.09188629  0.93505974    -0.65100
Ni154      Ni  0.97059032  0.03846431  0.91110532     1.27400
Ni155      Ni  0.05924854  0.00506224  0.86647834     1.26100
H156        H  0.10416810  0.08124973  0.86753002     0.40100
O157        O  0.77126016  0.27297118  0.43045997    -0.79900
O158        O  0.85217327  0.10033806  0.36103715    -0.64500
O159        O  0.77118583  0.20110398  0.38892203    -1.11200
C160        C  0.75186846  0.10123305  0.48082255     1.07000
O161        O  0.80774419  0.03902280  0.37922714    -0.77800
O162        O  0.72583806  0.05865550  0.40989580    -0.65300
Ni163      Ni  0.79453588  0.26638042  0.38863554     1.34900
C164        C  0.69548100  0.09230584  0.40323219     0.85800
O165        O  0.81268335  0.18081314  0.33400615    -0.78300
O166        O  0.81627526  0.26051687  0.34591455    -0.88600
C167        C  0.83515317  0.05788671  0.35799802     0.85300
O168        O  0.85912844  0.25542043  0.40441245    -0.66800
O169        O  0.77459934  0.06708506  0.46665898    -0.86100
C170        C  0.88873743  0.22162914  0.39769547     0.86200
C171        C  0.80796539  0.22612062  0.32662035     1.07700
H172        H  0.83518620  0.13277649  0.42891533     0.39500
O173        O  0.80605681  0.12567656  0.41699344    -1.08700
O174        O  0.70331722  0.13726999  0.40878568    -0.65400
Ni175      Ni  0.75655680  0.17216994  0.42843386     1.26300
O176        O  0.87449361  0.18223957  0.38521642    -0.65600
O177        O  0.74236841  0.14251870  0.46802292    -0.77900
C178        C  0.72584399  0.26649549  0.43437830     0.85600
O179        O  0.71006503  0.22294096  0.43681182    -0.65100
Ni180      Ni  0.79237054  0.05704121  0.42270240     1.27400
Ni181      Ni  0.81278132  0.15191343  0.37506505     1.26100
H182        H  0.74209832  0.20094984  0.37601479     0.40100
O183        O  0.67705547  0.44771937  0.16127158    -0.79900
O184        O  0.77156456  0.25526696  0.10824083    -0.64500
O185        O  0.67911599  0.35746096  0.12678738    -1.11200
C186        C  0.68430584  0.26412564  0.21956874     1.07000
O187        O  0.70777256  0.20994644  0.11679071    -0.77800
O188        O  0.62437258  0.22990686  0.14512413    -0.65300
Ni189      Ni  0.69499592  0.42535006  0.11903128     1.34900
C190        C  0.59543110  0.26444710  0.15103969     0.85800
O191        O  0.74039212  0.33429808  0.07505158    -0.78300
O192        O  0.71453924  0.41195023  0.07561138    -0.88600
C193        C  0.75299137  0.21285681  0.11136285     0.85300
O194        O  0.76036754  0.42207426  0.13439092    -0.66800
O195        O  0.67181496  0.22833330  0.20235463    -0.86100
C196        C  0.78997366  0.38769590  0.14107729     0.86200
C197        C  0.73346443  0.37548675  0.06151091     1.07700
H198        H  0.74362396  0.28393869  0.16881268     0.39500
O199        O  0.71381653  0.28348165  0.15645971    -1.08700
O200        O  0.61067022  0.30463674  0.16188830    -0.65400
Ni201      Ni  0.67373457  0.33435156  0.16963367     1.26300
O202        O  0.78211917  0.34325565  0.13401985    -0.65600
O203        O  0.67607044  0.30868000  0.21157016    -0.77900
C204        C  0.64988579  0.43037402  0.18315269     0.85600
O205        O  0.63526127  0.38679341  0.18290208    -0.65100
Ni206      Ni  0.68942885  0.21893523  0.15920750     1.27400
Ni207      Ni  0.72721493  0.30862400  0.11592398     1.26100
H208        H  0.64899186  0.35035274  0.11553859     0.40100
O209        O  0.80092072  0.54083672  0.66094419    -0.79900
O210        O  0.70923874  0.72859819  0.59445810    -0.64500
O211        O  0.79929555  0.62943067  0.62335728    -1.11200
C212        C  0.78402128  0.73057199  0.71186632     1.07000
O213        O  0.77050124  0.77623544  0.60448230    -0.77800
O214        O  0.85080808  0.76181594  0.64084614    -0.65300
Ni215      Ni  0.78450761  0.56096277  0.61769374     1.34900
C216        C  0.87879156  0.72682252  0.64878583     0.85800
O217        O  0.74458933  0.64903820  0.56754507    -0.78300
O218        O  0.76669100  0.57093840  0.57336723    -0.88600
C219        C  0.72573352  0.77154220  0.59759417     0.85300
O220        O  0.71880622  0.56543360  0.63132642    -0.66800
O221        O  0.79202058  0.76649705  0.69291854    -0.86100
C222        C  0.68836008  0.59994765  0.63451834     0.86200
C223        C  0.75061638  0.60678007  0.55657451     1.07700
H224        H  0.72991585  0.70500241  0.65803183     0.39500
O225        O  0.76091921  0.70544793  0.64732738    -1.08700
O226        O  0.86230531  0.68600101  0.65868142    -0.65400
Ni227      Ni  0.79932900  0.65606942  0.66522092     1.26300
O228        O  0.69583459  0.64349242  0.62445856    -0.65600
O229        O  0.79298342  0.68578489  0.70541054    -0.77900
C230        C  0.82438542  0.55982022  0.68366840     0.85600
O231        O  0.83595955  0.60451922  0.68358205    -0.65100
Ni232      Ni  0.78276697  0.77122667  0.64832213     1.27400
Ni233      Ni  0.75272581  0.67710475  0.60746890     1.26100
H234        H  0.83016690  0.63587916  0.61355594     0.40100
O235        O  0.71292970  0.70464794  0.92617843    -0.79900
O236        O  0.62936168  0.88578251  0.86436104    -0.64500
O237        O  0.71376875  0.78277817  0.88737361    -1.11200
C238        C  0.73097431  0.86852104  0.98354125     1.07000
O239        O  0.67668286  0.94409810  0.88233716    -0.77800
O240        O  0.75865450  0.92133987  0.91371070    -0.65300
Ni241      Ni  0.69363581  0.71689078  0.88372239     1.34900
C242        C  0.78908457  0.88876702  0.90606579     0.85800
O243        O  0.66796381  0.81019405  0.83356667    -0.78300
O244        O  0.67760082  0.72847067  0.84034551    -0.88600
C245        C  0.64722255  0.92808553  0.86143540     0.85300
O246        O  0.62649300  0.72197340  0.89592827    -0.66800
O247        O  0.70904630  0.90459871  0.96968896    -0.86100
C248        C  0.59619364  0.75690929  0.89332252     0.86200
C249        C  0.67589728  0.76735422  0.82311909     1.07700
H250        H  0.64987434  0.84453460  0.93016589     0.39500
O251        O  0.67866467  0.85317885  0.91828302    -1.08700
O252        O  0.78162831  0.84313939  0.91028712    -0.65400
Ni253      Ni  0.72833690  0.80544717  0.92823550     1.26300
O254        O  0.60978171  0.79995537  0.88580919    -0.65600
O255        O  0.74205241  0.82944017  0.96929227    -0.77900
C256        C  0.75823978  0.70997385  0.93134338     0.85600
O257        O  0.77448661  0.75306962  0.93507271    -0.65100
Ni258      Ni  0.69192789  0.92087262  0.92578421     1.27400
Ni259      Ni  0.67033068  0.83283855  0.87571991     1.26100
H260        H  0.74253978  0.78634945  0.87447019     0.40100
O261        O  0.68806389  0.54865109  0.41028876    -0.79900
O262        O  0.50166574  0.45249286  0.35375857    -0.64500
O263        O  0.59846875  0.54872268  0.37421751    -1.11200
C264        C  0.50527894  0.54276499  0.46711892     1.07000
O265        O  0.45251082  0.51307075  0.36237431    -0.77800
O266        O  0.46698553  0.59810821  0.39239385    -0.65300
Ni267      Ni  0.66656564  0.53629016  0.36707511     1.34900
C268        C  0.50124892  0.62803837  0.39752434     0.85800
O269        O  0.57868553  0.48885565  0.32186157    -0.78300
O270        O  0.65300615  0.52276603  0.32311537    -0.88600
C271        C  0.45850277  0.46788985  0.35744929     0.85300
O272        O  0.66615666  0.46874503  0.37863364    -0.66800
O273        O  0.46848227  0.54639207  0.44855896    -0.86100
C274        C  0.63308026  0.43828044  0.38613994     0.86200
C275        C  0.61808641  0.50190589  0.30842761     1.07700
H276        H  0.52818162  0.48060746  0.41524269     0.39500
O277        O  0.52611516  0.51050768  0.40286136    -1.08700
O278        O  0.54277002  0.61388729  0.40760099    -0.65400
Ni279      Ni  0.57530688  0.55231021  0.41661752     1.26300
O280        O  0.58806306  0.44553597  0.38074873    -0.65600
O281        O  0.54942723  0.54974632  0.45829446    -0.77900
C282        C  0.67092013  0.57558241  0.43180532     0.85600
O283        O  0.62767529  0.59152047  0.43029391    -0.65100
Ni284      Ni  0.46042884  0.53098504  0.40501574     1.27400
Ni285      Ni  0.55195234  0.49936150  0.36240011     1.26100
H286        H  0.59023102  0.57862560  0.36297678     0.40100
O287        O  0.52826280  0.46176310  0.67992654    -0.79900
O288        O  0.34690697  0.37931960  0.61651857    -0.64500
O289        O  0.45110947  0.45973474  0.64121192    -1.11200
C290        C  0.36341947  0.46881833  0.73738176     1.07000
O291        O  0.29090703  0.42803081  0.63618858    -0.77800
O292        O  0.31163205  0.50456176  0.67274504    -0.65300
Ni293      Ni  0.51606661  0.43683320  0.63888655     1.34900
C294        C  0.34268176  0.53419216  0.66119757     0.85800
O295        O  0.42441916  0.41996090  0.58685894    -0.78300
O296        O  0.50440857  0.41435885  0.59688319    -0.88600
C297        C  0.30551197  0.39931010  0.61474966     0.85300
O298        O  0.50638664  0.37189015  0.65602247    -0.66800
O299        O  0.32936385  0.44422282  0.72418320    -0.86100
C300        C  0.47288346  0.34169410  0.64916709     0.86200
C301        C  0.46886419  0.42692480  0.57892556     1.07700
H302        H  0.38927657  0.39367763  0.68303725     0.39500
O303        O  0.38007802  0.42300437  0.67152670    -1.08700
O304        O  0.38830113  0.52570675  0.66191790    -0.65400
Ni305      Ni  0.42609301  0.47339954  0.68142796     1.26300
O306        O  0.43266492  0.35590689  0.63715085    -0.65600
O307        O  0.39978803  0.48601457  0.72212459    -0.77900
C308        C  0.52006014  0.50698912  0.68413577     0.85600
O309        O  0.47633534  0.52108644  0.68795115    -0.65100
Ni310      Ni  0.31285283  0.43539879  0.68001948     1.27400
Ni311      Ni  0.40067777  0.41796626  0.62879982     1.26100
H312        H  0.44951014  0.48915655  0.62832574     0.40100
O313        O  0.17131968  0.93905723  0.66540689    -0.79900
O314        O  0.26438991  0.74949710  0.60772928    -0.64500
O315        O  0.17193843  0.85054982  0.62893823    -1.11200
C316        C  0.17729771  0.75390057  0.72077879     1.07000
O317        O  0.20186258  0.70281828  0.61664647    -0.77800
O318        O  0.11789803  0.72143526  0.64648191    -0.65300
Ni319      Ni  0.18776797  0.91873484  0.62258214     1.34900
C320        C  0.08939109  0.75618957  0.65298172     0.85800
O321        O  0.23095386  0.82926553  0.57611476    -0.78300
O322        O  0.20641327  0.90712680  0.57897822    -0.88600
C323        C  0.24717752  0.70666183  0.61147805     0.85300
O324        O  0.25318942  0.91432123  0.63721107    -0.66800
O325        O  0.16770707  0.71811927  0.70278466    -0.86100
C326        C  0.28317577  0.87974270  0.64232857     0.86200
C327        C  0.22365027  0.87110916  0.56360486     1.07700
H328        H  0.23755924  0.77591416  0.66916361     0.39500
O329        O  0.20759600  0.77554011  0.65714124    -1.08700
O330        O  0.10497165  0.79633269  0.66351931    -0.65400
Ni331      Ni  0.16757054  0.82582843  0.67136797     1.26300
O332        O  0.27522387  0.83585803  0.63425762    -0.65600
O333        O  0.16999156  0.79858365  0.71276726    -0.77900
C334        C  0.14520899  0.92059281  0.68741047     0.85600
O335        O  0.12908148  0.87769384  0.68567942    -0.65100
Ni336      Ni  0.18385530  0.71057022  0.65928497     1.27400
Ni337      Ni  0.21963067  0.80207512  0.61671040     1.26100
H338        H  0.14179781  0.84417599  0.61793933     0.40100
O339        O  0.26857561  0.76601759  0.92767788    -0.79900
O340        O  0.35150674  0.58694716  0.86380689    -0.64500
O341        O  0.26983303  0.68985141  0.88858717    -1.11200
C342        C  0.24719908  0.59570592  0.98231185     1.07000
O343        O  0.30655206  0.52663620  0.88331153    -0.77800
O344        O  0.22274351  0.55016894  0.91008881    -0.65300
Ni345      Ni  0.29198574  0.75538907  0.88621542     1.34900
C346        C  0.19341384  0.58433861  0.90253179     0.85800
O347        O  0.31157841  0.66553788  0.83425562    -0.78300
O348        O  0.31446282  0.74555419  0.84414144    -0.88600
C349        C  0.33548009  0.54373880  0.86239248     0.85300
O350        O  0.35646956  0.74655286  0.90230129    -0.66800
O351        O  0.26800834  0.55999389  0.96863545    -0.86100
C352        C  0.38703082  0.71337274  0.89611270     0.86200
C353        C  0.30328394  0.71011594  0.82634990     1.07700
H354        H  0.33288899  0.62311809  0.93077396     0.39500
O355        O  0.30386056  0.61591681  0.91873326    -1.08700
O356        O  0.20107676  0.62893012  0.90894396    -0.65400
Ni357      Ni  0.25422435  0.66374967  0.92855137     1.26300
O358        O  0.37371286  0.67199606  0.88564117    -0.65600
O359        O  0.23887818  0.63667234  0.96875521    -0.77900
C360        C  0.22341535  0.75917183  0.93244005     0.85600
O361        O  0.20782206  0.71554106  0.93519441    -0.65100
Ni362      Ni  0.28813071  0.54763889  0.92550546     1.27400
Ni363      Ni  0.31187700  0.63970961  0.87625152     1.26100
H364        H  0.24101011  0.68858387  0.87548308     0.40100
O365        O  0.79395453  0.42210778  0.91232186    -0.79900
O366        O  0.97951838  0.51783263  0.84743914    -0.64500
O367        O  0.88147040  0.42616684  0.87506350    -1.11200
C368        C  0.98198423  0.44176741  0.96516108     1.07000
O369        O  0.02574135  0.45507646  0.85777410    -0.77800
O370        O  0.01578667  0.37551610  0.89660507    -0.65300
Ni371      Ni  0.81299461  0.43985645  0.86900517     1.34900
C372        C  0.98076410  0.34645785  0.90238716     0.85800
O373        O  0.90045724  0.48220661  0.81956144    -0.78300
O374        O  0.82257467  0.45969282  0.82482644    -0.88600
C375        C  0.02205863  0.50008704  0.85050309     0.85300
O376        O  0.81600140  0.50541638  0.88256927    -0.66800
O377        O  0.01853548  0.43839317  0.94665326    -0.86100
C378        C  0.84938756  0.53720982  0.88514173     0.86200
C379        C  0.85806885  0.47669443  0.80836934     1.07700
H380        H  0.95505362  0.49590907  0.91087072     0.39500
O381        O  0.95643452  0.46512982  0.90011402    -1.08700
O382        O  0.93886873  0.36197139  0.91000263    -0.65400
Ni383      Ni  0.90843349  0.42456500  0.91709155     1.26300
O384        O  0.89313380  0.53051265  0.87576685    -0.65600
O385        O  0.93829408  0.42938650  0.95771763    -0.77900
C386        C  0.81380214  0.39852292  0.93524158     0.85600
O387        O  0.85805504  0.38601471  0.93445464    -0.65100
Ni388      Ni  0.02242242  0.44473422  0.90186751     1.27400
Ni389      Ni  0.92821553  0.47388886  0.85986871     1.26100
H390        H  0.88826893  0.39555973  0.86501138     0.40100
O391        O  0.96021002  0.51666003  0.18363560    -0.79900
O392        O  0.13340887  0.59817294  0.11558972    -0.64500
O393        O  0.03282339  0.51425829  0.14211431    -1.11200
C394        C  0.12918205  0.49614690  0.23505638     1.07000
O395        O  0.19317309  0.55026300  0.13170291    -0.77800
O396        O  0.17355764  0.46835373  0.16327739    -0.65300
Ni397      Ni  0.96675572  0.53389889  0.14032258     1.34900
C398        C  0.13984884  0.43877007  0.15608349     0.85800
O399        O  0.05353481  0.56126808  0.08744493    -0.78300
O400        O  0.97325912  0.54737751  0.09618936    -0.88600
C401        C  0.17438935  0.57884382  0.11082910     0.85300
O402        O  0.97274164  0.60180196  0.15030088    -0.66800
O403        O  0.16437253  0.51702140  0.22006307    -0.86100
C404        C  0.00803353  0.63170801  0.14809664     0.86200
C405        C  0.01047456  0.55031274  0.07808862     1.07700
H406        H  0.10019530  0.57736123  0.18237375     0.39500
O407        O  0.10703343  0.54861711  0.17032003    -1.08700
O408        O  0.09509261  0.44592408  0.16279320    -0.65400
Ni409      Ni  0.06009639  0.49948397  0.18210304     1.26300
O410        O  0.05054872  0.61805933  0.14039576    -0.65600
O411        O  0.08853199  0.48607659  0.22212599    -0.77900
C412        C  0.96497805  0.47118910  0.18938850     0.85600
O413        O  0.00803884  0.45395986  0.19148666    -0.65100
Ni414      Ni  0.17531065  0.53473641  0.17569428     1.27400
Ni415      Ni  0.08146186  0.55769937  0.12868891     1.26100
H416        H  0.03502866  0.48552138  0.12932653     0.40100
C417        C  0.95716809  0.52322033  0.03405073     0.24600
C418        C  0.00432159  0.53204464  0.04578366    -0.23500
C419        C  0.04446639  0.51106903  0.03036034     0.19500
C420        C  0.03727944  0.47931146  0.00541539     0.24600
C421        C  0.98974309  0.46789573  0.99501148    -0.23400
C422        C  0.94987564  0.49103358  0.00944603     0.19500
F423        F  0.90345690  0.48386837  0.99927618    -0.13400
F424        F  0.91761121  0.54498008  0.04688453    -0.15700
F425        F  0.07717372  0.45966934  0.99161979    -0.15700
F426        F  0.09087233  0.51915640  0.04029853    -0.13400
C427        C  0.11095152  0.51474448  0.84796036     0.24600
C428        C  0.06462995  0.53168455  0.85630479    -0.23500
C429        C  0.06097485  0.57143364  0.87682207     0.19500
C430        C  0.10306685  0.59087276  0.89084456     0.24600
C431        C  0.14912350  0.57056878  0.88461175    -0.23400
C432        C  0.15270704  0.53408960  0.86182013     0.19500
F433        F  0.19680741  0.51587292  0.85368191    -0.13400
F434        F  0.11552471  0.47703689  0.82785208    -0.15700
F435        F  0.09835690  0.62663143  0.91232432    -0.15700
F436        F  0.01656374  0.58815374  0.88573493    -0.13400
C437        C  0.25694605  0.56442390  0.03869187     0.24600
C438        C  0.23031407  0.59044235  0.01548223    -0.23500
C439        C  0.18751050  0.61472207  0.02445853     0.19500
C440        C  0.17123418  0.61280851  0.05545326     0.24600
C441        C  0.19695352  0.58605040  0.07892805    -0.23400
C442        C  0.24080437  0.56275561  0.07017943     0.19500
F443        F  0.26823925  0.53850840  0.09199002    -0.13400
F444        F  0.29912432  0.54157050  0.03108279    -0.15700
F445        F  0.12925178  0.63683543  0.06204450    -0.15700
F446        F  0.16018682  0.63968814  0.00285477    -0.13400
C447        C  0.23157360  0.78076792  0.76455030     0.24600
C448        C  0.20437777  0.74334828  0.75025983    -0.23500
C449        C  0.21212822  0.69464844  0.76033630     0.19500
C450        C  0.24622371  0.68358641  0.78379950     0.24600
C451        C  0.27398200  0.72090138  0.79774018    -0.23400
C452        C  0.26586213  0.76967206  0.78787337     0.19500
F453        F  0.29088902  0.80713465  0.80087789    -0.13400
F454        F  0.22684860  0.82827068  0.75514923    -0.15700
F455        F  0.25063642  0.63619309  0.79343889    -0.15700
F456        F  0.18731106  0.65720892  0.74714155    -0.13400
C457        C  0.27961722  0.57531056  0.62785144     0.24600
C458        C  0.32335105  0.57893156  0.64504157    -0.23500
C459        C  0.34644730  0.62488588  0.64659471     0.19500
C460        C  0.32406067  0.66680617  0.63313388     0.24600
C461        C  0.27853004  0.66313168  0.61769346    -0.23400
C462        C  0.25790869  0.61653948  0.61412990     0.19500
F463        F  0.21501760  0.61108400  0.59851822    -0.13400
F464        F  0.25686175  0.53159101  0.62488444    -0.15700
F465        F  0.34516344  0.71117379  0.63716683    -0.15700
F466        F  0.38880231  0.62980283  0.66284603    -0.13400
C467        C  0.31648446  0.47926605  0.82186208     0.24600
C468        C  0.34810762  0.51511006  0.83392736    -0.23500
C469        C  0.38897207  0.52880757  0.81588773     0.19500
C470        C  0.39539125  0.51133265  0.78553463     0.24600
C471        C  0.36056929  0.48003741  0.77178467    -0.23400
C472        C  0.32248580  0.46209665  0.79108992     0.19500
F473        F  0.29020339  0.42885520  0.78006487    -0.13400
F474        F  0.27818975  0.46263302  0.83908775    -0.15700
F475        F  0.43525562  0.52688904  0.76935632    -0.15700
F476        F  0.42230342  0.56079757  0.82722100    -0.13400
C477        C  0.52662098  0.47279868  0.54320444     0.24600
C478        C  0.47899721  0.45601674  0.54989958    -0.23500
C479        C  0.43999280  0.47481606  0.53173996     0.19500
C480        C  0.44827911  0.50883306  0.50761868     0.24600
C481        C  0.49615708  0.52240313  0.49914123    -0.23400
C482        C  0.53519480  0.50487765  0.51786336     0.19500
F483        F  0.58210828  0.51683879  0.51098774    -0.13400
F484        F  0.56531905  0.45816164  0.56101256    -0.15700
F485        F  0.40898739  0.52657048  0.49158533    -0.15700
F486        F  0.39329896  0.46029307  0.53701977    -0.13400
C487        C  0.52548556  0.69900124  0.90478380     0.24600
C488        C  0.54255490  0.74676359  0.89775962    -0.23500
C489        C  0.50730455  0.78379959  0.89250365     0.19500
C490        C  0.45718117  0.77302491  0.89312851     0.24600
C491        C  0.44033231  0.72498603  0.89915360    -0.23400
C492        C  0.47523730  0.68832918  0.90539494     0.19500
F493        F  0.46080651  0.64179754  0.91191341    -0.13400
F494        F  0.55739390  0.66188439  0.91029615    -0.15700
F495        F  0.42514955  0.80945443  0.88592403    -0.15700
F496        F  0.52098271  0.83047194  0.88552687    -0.13400
C497        C  0.82598295  0.67195963  0.90083983     0.24600
C498        C  0.79119087  0.66836851  0.92511411    -0.23500
C499        C  0.78069378  0.62220376  0.93824527     0.19500
C500        C  0.80267663  0.58023155  0.92649217     0.24600
C501        C  0.83500486  0.58319008  0.90080639    -0.23400
C502        C  0.84777389  0.62964913  0.88874718     0.19500
F503        F  0.87762967  0.63384494  0.86347564    -0.13400
F504        F  0.83491337  0.71585161  0.88660059    -0.15700
F505        F  0.79044194  0.53610626  0.93932353    -0.15700
F506        F  0.74687206  0.61743993  0.96133133    -0.13400
C507        C  0.96517182  0.69430091  0.65102225     0.24600
C508        C  0.93287403  0.73425295  0.64760743    -0.23500
C509        C  0.95298658  0.78174694  0.64534418     0.19500
C510        C  0.00365711  0.78894284  0.64627087     0.24600
C511        C  0.03573682  0.74890671  0.64961510    -0.23400
C512        C  0.01571125  0.70159501  0.65220270     0.19500
F513        F  0.04494912  0.66222898  0.65756341    -0.13400
F514        F  0.94807115  0.64785024  0.65387613    -0.15700
F515        F  0.02116163  0.83535115  0.64430426    -0.15700
F516        F  0.92367919  0.82171606  0.64346364    -0.13400
C517        C  0.88565197  0.52445428  0.76038714     0.24600
C518        C  0.85096936  0.49290430  0.77477914    -0.23500
C519        C  0.81017888  0.47878779  0.75682290     0.19500
C520        C  0.80368531  0.49673944  0.72583120     0.24600
C521        C  0.83671682  0.53076822  0.71258029    -0.23400
C522        C  0.87831380  0.54331496  0.73004745     0.19500
F523        F  0.91156962  0.57538463  0.71806516    -0.13400
F524        F  0.92607440  0.53938515  0.77608227    -0.15700
F525        F  0.76366046  0.48279897  0.70948625    -0.15700
F526        F  0.77605506  0.44832793  0.76935060    -0.13400
C527        C  0.72394585  0.70526881  0.75267766     0.24600
C528        C  0.75638726  0.74099880  0.74074331    -0.23500
C529        C  0.75348480  0.78887304  0.75236701     0.19500
C530        C  0.72160930  0.79957321  0.77687225     0.24600
C531        C  0.69221404  0.76255301  0.79037792    -0.23400
C532        C  0.69163450  0.71627547  0.77670351     0.19500
F533        F  0.66075719  0.68096212  0.78742551    -0.13400
F534        F  0.72223464  0.65972748  0.74053689    -0.15700
F535        F  0.72198840  0.84541946  0.78864891    -0.15700
F536        F  0.78201216  0.82529132  0.74045044    -0.13400
C537        C  0.59657180  0.60208695  0.64215443     0.24600
C538        C  0.64334659  0.58734746  0.65213816    -0.23500
C539        C  0.64746240  0.55505497  0.67812434     0.19500
C540        C  0.60643160  0.53180068  0.69057023     0.24600
C541        C  0.56001132  0.54227729  0.67843443    -0.23400
C542        C  0.55494209  0.57990104  0.65550347     0.19500
F543        F  0.51021504  0.59154194  0.64378776    -0.13400
F544        F  0.59123319  0.63464268  0.61794957    -0.15700
F545        F  0.61234779  0.49666028  0.71318974    -0.15700
F546        F  0.69187221  0.54418083  0.69051901    -0.13400
C547        C  0.70429486  0.63466606  0.50838490     0.24600
C548        C  0.73603010  0.60022752  0.52286472    -0.23500
C549        C  0.75216011  0.56065450  0.50476074     0.19500
C550        C  0.73453169  0.55431186  0.47386262     0.24600
C551        C  0.69958602  0.58680838  0.46074417    -0.23400
C552        C  0.68651533  0.62797925  0.47806846     0.19500
F553        F  0.65498033  0.66170735  0.46593452    -0.13400
F554        F  0.68828833  0.67446526  0.52392576    -0.15700
F555        F  0.75046217  0.51552774  0.45739047    -0.15700
F556        F  0.78478829  0.52804817  0.51688781    -0.13400
C557        C  0.58738230  0.46258043  0.25890207     0.24600
C558        C  0.62320993  0.49082009  0.27420471    -0.23500
C559        C  0.66416614  0.50626717  0.25657303     0.19500
C560        C  0.67068220  0.49093462  0.22546297     0.24600
C561        C  0.63709533  0.45889903  0.21151590    -0.23400
C562        C  0.59452253  0.44656118  0.22829906     0.19500
F563        F  0.56037406  0.41678711  0.21554978    -0.13400
F564        F  0.54595387  0.44819030  0.27385057    -0.15700
F565        F  0.71146993  0.50498098  0.20983740    -0.15700
F566        F  0.69889562  0.53491670  0.26964589    -0.13400
C567        C  0.88053154  0.37965090  0.15205456     0.24600
C568        C  0.83510977  0.40112186  0.15850598    -0.23500
C569        C  0.83316266  0.43819250  0.18104717     0.19500
C570        C  0.87584772  0.45659061  0.19446409     0.24600
C571        C  0.92167925  0.43935297  0.18511163    -0.23400
C572        C  0.92361605  0.39892559  0.16502666     0.19500
F573        F  0.96725701  0.38122755  0.15546076    -0.13400
F574        F  0.88366529  0.34291879  0.13115207    -0.15700
F575        F  0.87260588  0.49364995  0.21517226    -0.15700
F576        F  0.78985182  0.45803676  0.18930290    -0.13400
C577        C  0.74704845  0.41667530  0.97486794     0.24600
C578        C  0.78691558  0.38794731  0.96524544    -0.23500
C579        C  0.80641435  0.35367947  0.98703014     0.19500
C580        C  0.78889762  0.35026358  0.01777211     0.24600
C581        C  0.75030639  0.38014663  0.02800463    -0.23400
C582        C  0.72910794  0.41300848  0.00593062     0.19500
F583        F  0.69133272  0.44193005  0.01437924    -0.13400
F584        F  0.72678772  0.44993493  0.95471028    -0.15700
F585        F  0.81190334  0.31899508  0.03805791    -0.15700
F586        F  0.84405100  0.32412325  0.97901962    -0.13400
C587        C  0.70802471  0.35496137  0.43825664     0.24600
C588        C  0.69276665  0.30846861  0.42893620    -0.23500
C589        C  0.65210079  0.30464143  0.40868624     0.19500
C590        C  0.63005735  0.34697947  0.39590059     0.24600
C591        C  0.64885199  0.39329731  0.40301384    -0.23400
C592        C  0.68602658  0.39680169  0.42564603     0.19500
F593        F  0.70228226  0.44112684  0.43479143    -0.13400
F594        F  0.74645921  0.35995700  0.45814811    -0.15700
F595        F  0.59315785  0.34258804  0.37479008    -0.15700
F596        F  0.63684405  0.26024132  0.39882828    -0.13400
C597        C  0.76064237  0.28429629  0.29243139     0.24600
C598        C  0.78468090  0.23891366  0.29614504    -0.23500
C599        C  0.77593769  0.20243557  0.27393632     0.19500
C600        C  0.74151436  0.20977708  0.25008581     0.24600
C601        C  0.71522612  0.25410657  0.24755087    -0.23400
C602        C  0.72639094  0.29171390  0.26853419     0.19500
F603        F  0.70415763  0.33600256  0.26612707    -0.13400
F604        F  0.76823176  0.32115863  0.31282958    -0.15700
F605        F  0.73525307  0.17371432  0.22892597    -0.15700
F606        F  0.80002112  0.15904541  0.27556680    -0.13400
C607        C  0.95029876  0.25881784  0.89972997     0.24600
C608        C  0.98944813  0.29223396  0.90130408    -0.23500
C609        C  0.03710514  0.27302935  0.90403772     0.19500
C610        C  0.04542567  0.22233889  0.90514847     0.24600
C611        C  0.00646789  0.18886030  0.90290354    -0.23400
C612        C  0.95865342  0.20809239  0.90022969     0.19500
F613        F  0.91931817  0.17793667  0.89927055    -0.13400
F614        F  0.90349718  0.27499773  0.89817758    -0.15700
F615        F  0.09187579  0.20628762  0.90938625    -0.15700
F616        F  0.07597217  0.30330032  0.90721479    -0.13400
C617        C  0.88042128  0.88723171  0.89902864     0.24600
C618        C  0.83440988  0.90603069  0.89060700    -0.23500
C619        C  0.83167741  0.94445561  0.86820574     0.19500
C620        C  0.87396602  0.96526370  0.85558634     0.24600
C621        C  0.91997839  0.94904164  0.86574673    -0.23400
C622        C  0.92297396  0.90881201  0.88681024     0.19500
F623        F  0.96699138  0.89354712  0.89792763    -0.13400
F624        F  0.88435449  0.85100766  0.92109310    -0.15700
F625        F  0.87001880  0.00294787  0.83451999    -0.15700
F626        F  0.78783873  0.96308684  0.85930806    -0.13400
C627        C  0.15028097  0.80114601  0.90833864     0.24600
C628        C  0.19027655  0.80168149  0.92930844    -0.23500
C629        C  0.20527286  0.84640177  0.94163867     0.19500
C630        C  0.18405140  0.89002936  0.93110522     0.24600
C631        C  0.14812167  0.89028540  0.90741477    -0.23400
C632        C  0.12928752  0.84534150  0.89743761     0.19500
F633        F  0.09356529  0.84429760  0.87531647    -0.13400
F634        F  0.13467715  0.75839657  0.89610336    -0.15700
F635        F  0.20022888  0.93253094  0.94315023    -0.15700
F636        F  0.24276200  0.84805345  0.96254096    -0.13400
C637        C  0.09853698  0.93077541  0.73748956     0.24600
C638        C  0.13634829  0.94676197  0.71739561    -0.23500
C639        C  0.16975913  0.98147718  0.72882669     0.19500
C640        C  0.16670829  0.99799836  0.75990999     0.24600
C641        C  0.12926794  0.98134239  0.78000422    -0.23400
C642        C  0.09500229  0.94777169  0.76812694     0.19500
F643        F  0.05912504  0.92898360  0.78669879    -0.13400
F644        F  0.06555594  0.89698498  0.72796212    -0.15700
F645        F  0.20087247  0.02972905  0.77041314    -0.15700
F646        F  0.20697753  0.99766731  0.71053082    -0.13400
C647        C  0.03810167  0.71814060  0.15744836     0.24600
C648        C  0.99903010  0.68511314  0.15333448    -0.23500
C649        C  0.95133142  0.70441309  0.15186543     0.19500
C650        C  0.94317729  0.75499739  0.15282374     0.24600
C651        C  0.98239922  0.78820271  0.15508071    -0.23400
C652        C  0.02987973  0.76884894  0.15854448     0.19500
F653        F  0.06894951  0.79898012  0.16141295    -0.13400
F654        F  0.08474430  0.70165250  0.15949725    -0.15700
F655        F  0.89653002  0.77142950  0.15059648    -0.15700
F656        F  0.91230050  0.67464787  0.14768190    -0.13400
C657        C  0.79615422  0.84176272  0.06192022     0.24600
C658        C  0.78069034  0.88037191  0.08109850    -0.23500
C659        C  0.74467107  0.91231578  0.06885587     0.19500
C660        C  0.72837047  0.90879603  0.03743741     0.24600
C661        C  0.74564132  0.87153840  0.01776196    -0.23400
C662        C  0.77832266  0.83685124  0.03118315     0.19500
F663        F  0.79480202  0.79856877  0.01431611    -0.13400
F664        F  0.82970397  0.80885558  0.07262092    -0.15700
F665        F  0.69611082  0.94249194  0.02625087    -0.15700
F666        F  0.72659172  0.94846968  0.08681862    -0.13400
C667        C  0.84914124  0.12459086  0.14216756     0.24600
C668        C  0.82465698  0.07970913  0.13852900    -0.23500
C669        C  0.78047505  0.07930144  0.12153199     0.19500
C670        C  0.75984504  0.12262055  0.11013986     0.24600
C671        C  0.78248236  0.16784886  0.11545149    -0.23400
C672        C  0.82805016  0.16842255  0.13086171     0.19500
F673        F  0.84999419  0.21152945  0.13751933    -0.13400
F674        F  0.89154425  0.12656721  0.15864917    -0.15700
F675        F  0.71577427  0.12050164  0.09551743    -0.15700
F676        F  0.75598007  0.03691866  0.11673485    -0.13400
C677        C  0.81950823  0.97594426  0.28645813     0.24600
C678        C  0.85309557  0.99686364  0.26509249    -0.23500
C679        C  0.88299726  0.03532512  0.27575560     0.19500
C680        C  0.87916656  0.05249806  0.30636706     0.24600
C681        C  0.84463376  0.03269063  0.32757133    -0.23400
C682        C  0.81574016  0.99321004  0.31740494     0.19500
F683        F  0.78291324  0.97189317  0.33709812    -0.13400
F684        F  0.79008885  0.93881482  0.27745283    -0.15700
F685        F  0.90918675  0.08953104  0.31492525    -0.15700
F686        F  0.91523387  0.05808459  0.25621624    -0.13400
C687        C  0.95099410  0.98895900  0.03944027     0.24600
C688        C  0.98492056  0.95378825  0.05042420    -0.23500
C689        C  0.03272348  0.95491688  0.03862297     0.19500
C690        C  0.04572984  0.98890617  0.01531960     0.24600
C691        C  0.01132123  0.02310221  0.00372640    -0.23400
C692        C  0.96458832  0.02407257  0.01708432     0.19500
F693        F  0.93134832  0.05814283  0.00761146    -0.13400
F694        F  0.90479475  0.99045825  0.05083801    -0.15700
F695        F  0.09104052  0.98592199  0.00268138    -0.15700
F696        F  0.06674593  0.92242945  0.04917285    -0.13400
C697        C  0.44962585  0.20370201  0.65423352     0.24600
C698        C  0.49710297  0.18410628  0.65164631    -0.23500
C699        C  0.53670449  0.21720780  0.65141670     0.19500
C700        C  0.52901165  0.26803773  0.65255822     0.24600
C701        C  0.48143743  0.28764301  0.65336981    -0.23400
C702        C  0.44193071  0.25454397  0.65478650     0.19500
F703        F  0.39536390  0.27132338  0.65598625    -0.13400
F704        F  0.41003815  0.17386268  0.65464643    -0.15700
F705        F  0.56836731  0.29811031  0.65104691    -0.15700
F706        F  0.58322671  0.20060735  0.64929529    -0.13400
C707        C  0.32793866  0.92929415  0.68161513     0.24600
C708        C  0.32902759  0.89252527  0.65892365    -0.23500
C709        C  0.37424228  0.87177747  0.65111989     0.19500
C710        C  0.41782335  0.89221132  0.66256394     0.24600
C711        C  0.41647009  0.93331497  0.68211323    -0.23400
C712        C  0.37108674  0.94962795  0.69292714     0.19500
F713        F  0.36845167  0.98745834  0.71307772    -0.13400
F714        F  0.28480151  0.94690265  0.69204849    -0.15700
F715        F  0.46109153  0.87481501  0.65213350    -0.15700
F716        F  0.37646241  0.83441049  0.63061968    -0.13400
C717        C  0.73831297  0.06023765  0.56717551     0.24600
C718        C  0.69354857  0.08255729  0.57519129    -0.23500
C719        C  0.66924103  0.11039773  0.55162391     0.19500
C720        C  0.68858178  0.11579450  0.52153715     0.24600
C721        C  0.73284110  0.09336134  0.51336265    -0.23400
C722        C  0.75755165  0.06535523  0.53650403     0.19500
F723        F  0.80077851  0.04388196  0.52968026    -0.13400
F724        F  0.76347352  0.03328633  0.58882862    -0.15700
F725        F  0.66271131  0.14234239  0.49994809    -0.15700
F726        F  0.62561753  0.13209354  0.55714908    -0.13400
C727        C  0.65277859  0.80662486  0.62418027     0.24600
C728        C  0.69267078  0.81287138  0.60365302    -0.23500
C729        C  0.70772126  0.86034670  0.59544557     0.19500
C730        C  0.68668159  0.90069650  0.60980227     0.24600
C731        C  0.64981822  0.89441701  0.63257668    -0.23400
C732        C  0.63125657  0.84724115  0.63837993     0.19500
F733        F  0.59540823  0.83999460  0.65986322    -0.13400
F734        F  0.63805604  0.76106794  0.63311210    -0.15700
F735        F  0.70380132  0.94596664  0.60229953    -0.15700
F736        F  0.74512681  0.86740282  0.57500017    -0.13400
C737        C  0.67054474  0.98737691  0.81678391     0.24600
C738        C  0.63656552  0.95537435  0.83113575    -0.23500
C739        C  0.59490038  0.94274271  0.81360270     0.19500
C740        C  0.59041334  0.95591074  0.78176753     0.24600
C741        C  0.62690997  0.98371724  0.76618402    -0.23400
C742        C  0.66583337  0.00136913  0.78473777     0.19500
F743        F  0.69954221  0.03209582  0.77198780    -0.13400
F744        F  0.70900131  0.00430505  0.83344228    -0.15700
F745        F  0.55012335  0.94030045  0.76624334    -0.15700
F746        F  0.55823760  0.91667630  0.82726591    -0.13400
C747        C  0.43591468  0.75157806  0.39412658     0.24600
C748        C  0.47527848  0.78478158  0.39479048    -0.23500
C749        C  0.52298052  0.76579838  0.39238026     0.19500
C750        C  0.53125633  0.71521023  0.39237406     0.24600
C751        C  0.49206829  0.68182545  0.39316023    -0.23400
C752        C  0.44414483  0.70093605  0.39247444     0.19500
F753        F  0.40489734  0.67068509  0.39168596    -0.13400
F754        F  0.38922710  0.76791206  0.39577473    -0.15700
F755        F  0.57808301  0.69904889  0.39239462    -0.15700
F756        F  0.56227353  0.79601183  0.39168286    -0.13400
C757        C  0.25771618  0.92921818  0.48410047     0.24600
C758        C  0.27362038  0.88844775  0.46719437    -0.23500
C759        C  0.26939839  0.84188443  0.48127972     0.19500
C760        C  0.25156867  0.83625546  0.51194401     0.24600
C761        C  0.23730327  0.87730189  0.52960977    -0.23400
C762        C  0.23938536  0.92378749  0.51478194     0.19500
F763        F  0.22616541  0.96449496  0.53041453    -0.13400
F764        F  0.26367496  0.97492259  0.47195149    -0.15700
F765        F  0.24978764  0.79029361  0.52450196    -0.15700
F766        F  0.28376206  0.80162083  0.46556586    -0.13400
C767        C  0.60645797  0.01656354  0.35693606     0.24600
C768        C  0.56116101  0.03346450  0.36774512    -0.23500
C769        C  0.56019592  0.07482221  0.38701554     0.19500
C770        C  0.60391938  0.09630513  0.39728928     0.24600
C771        C  0.64915255  0.07697833  0.38820847    -0.23400
C772        C  0.64984164  0.03859683  0.36661969     0.19500
F773        F  0.69286610  0.02122702  0.35568616    -0.13400
F774        F  0.60889845  0.97688766  0.33826780    -0.15700
F775        F  0.60201663  0.13326344  0.41809857    -0.15700
F776        F  0.51723093  0.09141382  0.39844528    -0.13400
C777        C  0.52510347  0.96704757  0.50562909     0.24600
C778        C  0.47964902  0.94356874  0.50186953    -0.23500
C779        C  0.44199750  0.95428250  0.52307580     0.19500
C780        C  0.44853450  0.98956891  0.54607747     0.24600
C781        C  0.49324739  0.01486695  0.54883236    -0.23400
C782        C  0.53167670  0.00230513  0.52857785     0.19500
F783        F  0.57626151  0.02362036  0.53105209    -0.13400
F784        F  0.56325012  0.95728273  0.48646185    -0.15700
F785        F  0.41124084  0.99755306  0.56626275    -0.15700
F786        F  0.39839701  0.93083312  0.52150258    -0.13400
C787        C  0.52331183  0.20824330  0.14429768     0.24600
C788        C  0.54178335  0.25622027  0.14671965    -0.23500
C789        C  0.50808602  0.29516432  0.14721879     0.19500
C790        C  0.45755155  0.28608821  0.14713927     0.24600
C791        C  0.43920226  0.23771557  0.14680324    -0.23400
C792        C  0.47301389  0.19918072  0.14438158     0.19500
F793        F  0.45763936  0.15212682  0.14265591    -0.13400
F794        F  0.55389606  0.16927854  0.14323769    -0.15700
F795        F  0.42678504  0.32487939  0.14855329    -0.15700
F796        F  0.52385978  0.34219117  0.14826431    -0.13400
C797        C  0.15475101  0.30699356  0.12964090     0.24600
C798        C  0.19688261  0.31133403  0.11081589    -0.23500
C799        C  0.21424057  0.35827660  0.10307506     0.19500
C800        C  0.19333683  0.39960385  0.11634106     0.24600
C801        C  0.15490689  0.39504704  0.13816127    -0.23400
C802        C  0.13395195  0.34864097  0.14329231     0.19500
F803        F  0.09570054  0.34312113  0.16319588    -0.13400
F804        F  0.13626825  0.26223194  0.13704585    -0.15700
F805        F  0.21172658  0.44424986  0.10842458    -0.15700
F806        F  0.25339857  0.36392571  0.08387535    -0.13400
C807        C  0.31034005  0.99478085  0.22992787     0.24600
C808        C  0.34259926  0.03081751  0.21803194    -0.23500
C809        C  0.38093394  0.04611588  0.23766922     0.19500
C810        C  0.38551489  0.02818076  0.26852929     0.24600
C811        C  0.35173735  0.99415260  0.28126737    -0.23400
C812        C  0.31451981  0.97705805  0.26118446     0.19500
F813        F  0.28182800  0.94332826  0.27169578    -0.13400
F814        F  0.27374979  0.97754021  0.21168403    -0.15700
F815        F  0.42299389  0.04548102  0.28605790    -0.15700
F816        F  0.41429646  0.07923684  0.22716066    -0.13400
C817        C  0.10718134  0.02540746  0.19089791     0.24600
C818        C  0.06172809  0.04033883  0.17887673    -0.23500
C819        C  0.06000303  0.07936490  0.15677093     0.19500
C820        C  0.10344002  0.09961799  0.14474878     0.24600
C821        C  0.14882325  0.08074561  0.15452609    -0.23400
C822        C  0.15018707  0.04559168  0.17901907     0.19500
F823        F  0.19347528  0.02954713  0.19081137    -0.13400
F824        F  0.11003067  0.98877269  0.21278220    -0.15700
F825        F  0.10110607  0.13476002  0.12186815    -0.15700
F826        F  0.01669087  0.09450301  0.14449760    -0.13400
C827        C  0.23963766  0.04752514  0.98008061     0.24600
C828        C  0.21472600  0.08532036  0.96381811    -0.23500
C829        C  0.21099336  0.13090783  0.97815017     0.19500
C830        C  0.22794075  0.13764404  0.00881369     0.24600
C831        C  0.24761629  0.09823537  0.02680261    -0.23400
C832        C  0.25480068  0.05337959  0.01146997     0.19500
F833        F  0.27479796  0.01447895  0.02701146    -0.13400
F834        F  0.24694508  0.00392269  0.96631456    -0.15700
F835        F  0.22334159  0.18287447  0.02105604    -0.15700
F836        F  0.18938501  0.16896949  0.96263843    -0.13400
C837        C  0.02533059  0.19641954  0.40476617     0.24600
C838        C  0.04540157  0.24393844  0.40249980    -0.23500
C839        C  0.01293232  0.28402663  0.40225320     0.19500
C840        C  0.96222410  0.27676947  0.40248347     0.24600
C841        C  0.94226519  0.22923660  0.40274265    -0.23400
C842        C  0.97460747  0.18921336  0.40468990     0.19500
F843        F  0.95724458  0.14271755  0.40588274    -0.13400
F844        F  0.05463968  0.15640799  0.40578662    -0.15700
F845        F  0.93274259  0.31659774  0.40058966    -0.15700
F846        F  0.03000345  0.33062099  0.40097181    -0.13400
C847        C  0.10602968  0.43071872  0.31344057     0.24600
C848        C  0.14465091  0.44653581  0.33262385    -0.23500
C849        C  0.17608420  0.48309855  0.32035997     0.19500
C850        C  0.17147376  0.49982379  0.28883966     0.24600
C851        C  0.13451911  0.48128533  0.26911931    -0.23400
C852        C  0.10128090  0.44728081  0.28239787     0.19500
F853        F  0.06499247  0.42748962  0.26493669    -0.13400
F854        F  0.07321486  0.39734566  0.32435322    -0.15700
F855        F  0.20375851  0.53338412  0.27757377    -0.15700
F856        F  0.21251177  0.50132102  0.33831510    -0.13400
C857        C  0.25619590  0.11470828  0.44001431     0.24600
C858        C  0.28106337  0.15968616  0.43996538    -0.23500
C859        C  0.32866251  0.16147042  0.42736590     0.19500
C860        C  0.34905381  0.11999024  0.41308018     0.24600
C861        C  0.32191260  0.07640704  0.41069769    -0.23400
C862        C  0.27553369  0.07433475  0.42494409     0.19500
F863        F  0.24748005  0.03353845  0.42342178    -0.13400
F864        F  0.21119729  0.11047592  0.45309080    -0.15700
F865        F  0.39378705  0.12358031  0.39966965    -0.15700
F866        F  0.35421388  0.20396827  0.42697768    -0.13400
C867        C  0.24167530  0.28107669  0.28800243     0.24600
C868        C  0.21483775  0.24235888  0.30181699    -0.23500
C869        C  0.22037538  0.19498299  0.28977448     0.19500
C870        C  0.25048985  0.18704611  0.26394208     0.24600
C871        C  0.27727855  0.22595203  0.25028447    -0.23400
C872        C  0.27319816  0.27271353  0.26309052     0.19500
F873        F  0.29923777  0.31088703  0.25107256    -0.13400
F874        F  0.23937238  0.32704677  0.29942124    -0.15700
F875        F  0.25114208  0.14175911  0.25132114    -0.15700
F876        F  0.19667965  0.15613291  0.30293051    -0.13400
C877        C  0.38204849  0.37450346  0.40102499     0.24600
C878        C  0.33526783  0.39297298  0.39417542    -0.23500
C879        C  0.33001286  0.42860701  0.37013735     0.19500
C880        C  0.37061000  0.44937314  0.35570630     0.24600
C881        C  0.41761749  0.43439935  0.36440018    -0.23400
C882        C  0.42316651  0.39499951  0.38602679     0.19500
F883        F  0.46834651  0.37972423  0.39492996    -0.13400
F884        F  0.38830279  0.33980724  0.42388304    -0.15700
F885        F  0.36408481  0.48688264  0.33478063    -0.15700
F886        F  0.28521283  0.44509528  0.36148866    -0.13400
C887        C  0.25180198  0.33762736  0.54355517     0.24600
C888        C  0.24050969  0.37779994  0.52339626    -0.23500
C889        C  0.24601037  0.42529989  0.53541548     0.19500
C890        C  0.26461488  0.43228240  0.56585321     0.24600
C891        C  0.27689884  0.39214201  0.58543625    -0.23400
C892        C  0.26986986  0.34481690  0.57400344     0.19500
F893        F  0.28258075  0.30527388  0.59195804    -0.13400
F894        F  0.24707047  0.29100219  0.53355637    -0.15700
F895        F  0.27522884  0.47834626  0.57491033    -0.15700
F896        F  0.23682468  0.46530148  0.51701878    -0.13400
loop_ 
_geom_bond_atom_site_label_1 
_geom_bond_atom_site_label_2 
_geom_bond_distance 
_geom_bond_site_symmetry_2 
_ccdc_geom_bond_type 
O1           Ni7   1.889       .  S
O1           C22   1.266       .  A
O2          Ni25   1.890       .  S
O2           C11   1.264       .  A
O3           Ni7   1.888       .  S
O3          Ni25   1.864       .  S
O3          Ni19   1.899       .  S
O3           H26   0.967       .  S
C4           O21   1.274       .  A
C4           O13   1.283       .  A
C4          C888   1.505       .  S
O5          Ni24   1.975       .  S
O5           C11   1.280       .  A
O6          Ni24   1.895       .  S
O6            C8   1.269       .  A
Ni7          O10   1.914       .  S
Ni7          O12   1.912       .  S
C8           O18   1.275       .  A
C8          C878   1.480       .  S
O9          Ni25   1.920       .  S
O9           C15   1.285       .  A
O10          C15   1.281       .  A
C11         C848   1.503       .  S
O12          C14   1.266       .  A
O13         Ni24   1.954       .  S
C14          O20   1.270       .  A
C14         C838   1.502       .  S
C15         C868   1.480       .  S
H16          O17   0.966       .  S
O17         Ni25   1.928       .  S
O17         Ni19   1.937       .  S
O17         Ni24   1.922       .  S
O18         Ni19   1.940       .  S
Ni19         O23   1.942       .  S
Ni19         O21   1.913       .  S
O20         Ni25   1.932       .  S
C22          O23   1.273       .  A
C22         C858   1.493       .  S
O27         Ni33   1.972       .  S
O27          C48   1.279       .  A
O28         Ni51   1.933       .  S
O28          C37   1.272       .  A
O29         Ni33   1.923       .  S
O29         Ni51   1.929       .  S
O29         Ni45   1.920       .  S
O29          H52   0.966       .  S
C30          O47   1.281       .  A
C30          O39   1.281       .  A
C30         C871   1.474       .  S
O31         Ni50   1.897       .  S
O31          C37   1.268       .  A
O32         Ni50   1.912       .  S
O32          C34   1.267       .  A
Ni33         O36   1.960       .  S
Ni33         O38   1.904       .  S
C34          O44   1.274       .  A
C34         C791   1.502       .  S
O35         Ni51   1.910       .  S
O35          C41   1.275       .  A
O36          C41   1.285       .  A
C37         C798   1.484       .  S
O38          C40   1.269       .  A
O39         Ni50   1.912       .  S
C40          O46   1.271       .  A
C40         C821   1.481       .  S
C41         C831   1.508       .  S
H42          O43   0.966       .  S
O43         Ni51   1.898       .  S
O43         Ni45   1.870       .  S
O43         Ni50   1.890       .  S
O44         Ni45   1.939       .  S
Ni45         O49   1.891       .  S
Ni45         O47   1.912       .  S
O46         Ni51   1.933       .  S
C48          O49   1.263       .  A
C48         C808   1.503       .  S
O53         Ni59   1.966       .  S
O53          C74   1.279       .  A
O54         Ni77   1.932   1_545  S
O54          C63   1.276       .  A
O55         Ni59   1.916       .  S
O55         Ni77   1.927       .  S
O55         Ni71   1.926       .  S
O55          H78   0.968       .  S
C56          O73   1.281       .  A
C56          O65   1.281       .  A
C56         C778   1.486       .  S
O57         Ni76   1.910       .  S
O57          C63   1.269   1_565  A
O58         Ni76   1.910       .  S
O58          C60   1.267       .  A
Ni59         O62   1.956       .  S
Ni59         O64   1.903   1_565  S
C60          O70   1.273       .  A
C60         C748   1.500       .  S
O61         Ni77   1.916       .  S
O61          C67   1.276       .  A
O62          C67   1.284       .  A
C63         C768   1.483       .  S
O64          C66   1.269       .  A
O65         Ni76   1.929       .  S
C66          O72   1.277       .  A
C66         C861   1.495       .  S
C67         C811   1.509       .  S
H68          O69   0.967       .  S
O69         Ni77   1.889       .  S
O69         Ni71   1.873       .  S
O69         Ni76   1.889       .  S
O70         Ni71   1.942       .  S
Ni71         O75   1.897       .  S
Ni71         O73   1.911       .  S
O72         Ni77   1.948   1_545  S
C74          O75   1.263       .  A
C74         C758   1.489       .  S
O79         Ni85   1.911       .  S
O79         C100   1.271   1_545  A
O80        Ni103   1.884       .  S
O80          C89   1.261       .  A
O81         Ni85   1.893       .  S
O81        Ni103   1.872       .  S
O81         Ni97   1.890   1_545  S
O81         H104   0.967   1_545  S
C82          O99   1.276       .  A
C82          O91   1.286   1_565  A
C82         C741   1.514       .  S
O83        Ni102   1.976       .  S
O83          C89   1.280       .  A
O84        Ni102   1.906   1_565  S
O84          C86   1.269       .  A
Ni85         O88   1.927       .  S
Ni85         O90   1.922       .  S
C86          O96   1.275       .  A
C86         C731   1.485       .  S
O87        Ni103   1.908       .  S
O87          C93   1.280       .  A
O88          C93   1.281       .  A
C89         C718   1.505       .  S
O90          C92   1.270       .  A
O91        Ni102   1.965       .  S
C92          O98   1.273       .  A
C92         C698   1.507       .  S
C93         C781   1.487       .  S
H94          O95   0.966       .  S
O95        Ni103   1.917       .  S
O95         Ni97   1.928   1_545  S
O95        Ni102   1.923       .  S
O96         Ni97   1.943       .  S
Ni97        O101   1.930       .  S
Ni97         O99   1.915       .  S
O98        Ni103   1.941       .  S
C100        O101   1.274       .  A
C100        C711   1.483       .  S
O105       Ni111   1.908       .  S
O105        C126   1.268   1_565  A
O106       Ni129   1.890       .  S
O106        C115   1.260       .  A
O107       Ni111   1.899   1_655  S
O107       Ni129   1.875       .  S
O107       Ni123   1.883       .  S
O107        H130   0.967       .  S
C108        O125   1.271       .  A
C108        O117   1.286       .  A
C108        C678   1.503       .  S
O109       Ni128   1.983       .  S
O109        C115   1.282       .  A
O110       Ni128   1.900   1_545  S
O110        C112   1.269       .  A
Ni111       O114   1.922       .  S
Ni111       O116   1.918       .  S
C112        O122   1.275       .  A
C112        C668   1.487       .  S
O113       Ni129   1.902       .  S
O113        C119   1.277       .  A
O114        C119   1.278   1_455  A
C115        C658   1.508       .  S
O116        C118   1.268   1_455  A
O117       Ni128   1.965       .  S
C118        O124   1.270       .  A
C118        C651   1.501       .  S
C119        C688   1.472       .  S
H120        O121   0.966       .  S
O121       Ni129   1.923       .  S
O121       Ni123   1.937       .  S
O121       Ni128   1.923       .  S
O122       Ni123   1.938   1_545  S
Ni123       O127   1.931   1_565  S
Ni123       O125   1.901       .  S
O124       Ni129   1.931       .  S
C126        O127   1.272   1_455  A
C126        C818   1.479       .  S
O131       Ni137   1.964       .  S
O131        C152   1.277       .  A
O132       Ni155   1.921   1_565  S
O132        C141   1.269   1_455  A
O133       Ni137   1.933       .  S
O133       Ni155   1.937       .  S
O133       Ni149   1.928       .  S
O133        H156   0.965       .  S
C134        O151   1.280       .  A
C134        O143   1.280   1_455  A
C134        C691   1.470   1_556  S
O135       Ni154   1.904       .  S
O135        C141   1.267   1_545  A
O136       Ni154   1.905       .  S
O136        C138   1.266   1_655  A
Ni137       O140   1.958       .  S
Ni137       O142   1.896   1_545  S
C138        O148   1.275       .  A
C138        C611   1.505       .  S
O139       Ni155   1.891   1_565  S
O139        C145   1.267       .  A
O140        C145   1.282   1_545  A
C141        C621   1.475       .  S
O142        C144   1.267       .  A
O143       Ni154   1.914       .  S
C144        O150   1.275       .  A
C144        C631   1.486       .  S
C145        C641   1.496       .  S
H146        O147   0.967   1_565  S
O147       Ni155   1.889       .  S
O147       Ni149   1.873       .  S
O147       Ni154   1.895   1_455  S
O148       Ni149   1.944       .  S
Ni149       O153   1.894       .  S
Ni149       O151   1.909       .  S
O150       Ni155   1.947   1_565  S
C152        O153   1.264       .  A
C152        C828   1.492       .  S
O157       Ni163   1.905       .  S
O157        C178   1.269       .  A
O158       Ni181   1.884       .  S
O158        C167   1.260       .  A
O159       Ni163   1.896       .  S
O159       Ni181   1.869       .  S
O159       Ni175   1.891       .  S
O159        H182   0.967       .  S
C160        O177   1.272       .  A
C160        O169   1.284       .  A
C160        C721   1.494       .  S
O161       Ni180   1.971       .  S
O161        C167   1.279       .  A
O162       Ni180   1.902       .  S
O162        C164   1.269       .  A
Ni163       O166   1.926       .  S
Ni163       O168   1.914       .  S
C164        O174   1.275       .  A
C164        C771   1.484       .  S
O165       Ni181   1.906       .  S
O165        C171   1.280       .  A
O166        C171   1.280       .  A
C167        C681   1.502       .  S
O168        C170   1.267       .  A
O169       Ni180   1.960       .  S
C170        O176   1.271       .  A
C170        C841   1.497       .  S
C171        C598   1.481       .  S
H172        O173   0.966       .  S
O173       Ni181   1.922       .  S
O173       Ni175   1.930       .  S
O173       Ni180   1.926       .  S
O174       Ni175   1.939       .  S
Ni175       O179   1.924       .  S
Ni175       O177   1.899       .  S
O176       Ni181   1.935       .  S
C178        O179   1.270       .  A
C178        C588   1.478       .  S
O183       Ni189   1.974       .  S
O183        C204   1.279       .  A
O184       Ni207   1.933       .  S
O184        C193   1.272       .  A
O185       Ni189   1.930       .  S
O185       Ni207   1.940       .  S
O185       Ni201   1.926       .  S
O185        H208   0.975       .  S
C186        O203   1.279       .  A
C186        O195   1.279       .  A
C186        C601   1.482       .  S
O187       Ni206   1.897       .  S
O187        C193   1.264       .  A
O188       Ni206   1.902       .  S
O188        C190   1.263       .  A
Ni189       O192   1.967       .  S
Ni189       O194   1.907       .  S
C190        O200   1.270       .  A
C190        C788   1.499       .  S
O191       Ni207   1.901       .  S
O191        C197   1.270       .  A
O192        C197   1.284       .  A
C193        C671   1.480       .  S
O194        C196   1.270       .  A
O195       Ni206   1.923       .  S
C196        O202   1.275       .  A
C196        C568   1.490       .  S
C197        C581   1.504       .  S
H198        O199   0.971       .  S
O199       Ni207   1.884       .  S
O199       Ni201   1.868       .  S
O199       Ni206   1.890       .  S
O200       Ni201   1.940       .  S
Ni201       O205   1.877       .  S
Ni201       O203   1.908       .  S
O202       Ni207   1.943       .  S
C204        O205   1.258       .  A
C204        C561   1.492       .  S
O209       Ni215   1.964       .  S
O209        C230   1.278       .  A
O210       Ni233   1.918       .  S
O210        C219   1.268       .  A
O211       Ni215   1.935       .  S
O211       Ni233   1.937       .  S
O211       Ni227   1.938       .  S
O211        H234   0.960       .  S
C212        O229   1.284       .  A
C212        O221   1.280       .  A
C212        C528   1.479       .  S
O213       Ni232   1.898       .  S
O213        C219   1.268       .  A
O214       Ni232   1.911       .  S
O214        C216   1.267       .  A
Ni215       O218   1.962       .  S
Ni215       O220   1.899       .  S
C216        O226   1.270       .  A
C216        C508   1.497       .  S
O217       Ni233   1.890       .  S
O217        C223   1.266       .  A
O218        C223   1.280       .  A
C219        C728   1.476       .  S
O220        C222   1.270       .  A
O221       Ni232   1.917       .  S
C222        O228   1.275       .  A
C222        C538   1.484       .  S
C223        C548   1.503       .  S
H224        O225   0.966       .  S
O225       Ni233   1.891       .  S
O225       Ni227   1.863       .  S
O225       Ni232   1.897       .  S
O226       Ni227   1.929       .  S
Ni227       O231   1.888       .  S
Ni227       O229   1.916       .  S
O228       Ni233   1.945       .  S
C230        O231   1.263       .  A
C230        C521   1.491       .  S
O235       Ni241   1.906       .  S
O235        C256   1.270       .  A
O236       Ni259   1.888       .  S
O236        C245   1.261       .  A
O237       Ni241   1.894       .  S
O237       Ni259   1.874       .  S
O237       Ni253   1.899       .  S
O237        H260   0.967       .  S
C238        O255   1.276       .  A
C238        O247   1.288       .  A
C238        C661   1.514   1_556  S
O239       Ni258   1.988       .  S
O239        C245   1.283       .  A
O240       Ni258   1.902       .  S
O240        C242   1.268       .  A
Ni241       O244   1.918       .  S
Ni241       O246   1.920       .  S
C242        O252   1.274       .  A
C242        C618   1.481       .  S
O243       Ni259   1.910       .  S
O243        C249   1.280       .  A
O244        C249   1.282       .  A
C245        C738   1.507       .  S
O246        C248   1.269       .  A
O247       Ni258   1.969       .  S
C248        O254   1.271       .  A
C248        C488   1.508       .  S
C249        C531   1.474       .  S
H250        O251   0.966       .  S
O251       Ni259   1.918       .  S
O251       Ni253   1.928       .  S
O251       Ni258   1.919       .  S
O252       Ni253   1.939       .  S
Ni253       O257   1.929       .  S
Ni253       O255   1.915       .  S
O254       Ni259   1.934       .  S
C256        O257   1.272       .  A
C256        C498   1.481       .  S
O261       Ni267   1.965       .  S
O261        C282   1.277       .  A
O262       Ni285   1.921       .  S
O262        C271   1.267       .  A
O263       Ni267   1.924       .  S
O263       Ni285   1.929       .  S
O263       Ni279   1.920       .  S
O263        H286   0.967       .  S
C264        O281   1.282       .  A
C264        O273   1.282       .  A
C264        C481   1.486       .  S
O265       Ni284   1.901       .  S
O265        C271   1.268       .  A
O266       Ni284   1.912       .  S
O266        C268   1.267       .  A
Ni267       O270   1.949       .  S
Ni267       O272   1.903       .  S
C268        O278   1.273       .  A
C268        C751   1.501       .  S
O269       Ni285   1.904       .  S
O269        C275   1.272       .  A
O270        C275   1.281       .  A
C271        C881   1.475       .  S
O272        C274   1.269       .  A
O273       Ni284   1.921       .  S
C274        O280   1.269       .  A
C274        C591   1.478       .  S
C275        C558   1.501       .  S
H276        O277   0.967       .  S
O277       Ni285   1.895       .  S
O277       Ni279   1.867       .  S
O277       Ni284   1.889       .  S
O278       Ni279   1.938       .  S
Ni279       O283   1.889       .  S
Ni279       O281   1.913       .  S
O280       Ni285   1.927       .  S
C282        O283   1.264       .  A
C282        C551   1.496       .  S
O287       Ni293   1.916       .  S
O287        C308   1.273       .  A
O288       Ni311   1.892       .  S
O288        C297   1.261       .  A
O289       Ni293   1.891       .  S
O289       Ni311   1.874       .  S
O289       Ni305   1.890       .  S
O289        H312   0.967       .  S
C290        O307   1.277       .  A
C290        O299   1.284       .  A
C290        C471   1.504       .  S
O291       Ni310   1.973       .  S
O291        C297   1.280       .  A
O292       Ni310   1.912       .  S
O292        C294   1.269       .  A
Ni293       O296   1.927       .  S
Ni293       O298   1.927       .  S
C294        O304   1.272       .  A
C294        C458   1.490       .  S
O295       Ni311   1.903       .  S
O295        C301   1.279       .  A
O296        C301   1.280       .  A
C297        C891   1.488       .  S
O298        C300   1.272       .  A
O299       Ni310   1.952       .  S
C300        O306   1.272       .  A
C300        C701   1.504       .  S
C301        C478   1.485       .  S
H302        O303   0.966       .  S
O303       Ni311   1.914       .  S
O303       Ni305   1.920       .  S
O303       Ni310   1.911       .  S
O304       Ni305   1.940       .  S
Ni305       O309   1.920       .  S
Ni305       O307   1.916       .  S
O306       Ni311   1.937       .  S
C308        O309   1.271       .  A
C308        C541   1.477       .  S
O313       Ni319   1.970       .  S
O313        C334   1.278       .  A
O314       Ni337   1.935       .  S
O314        C323   1.271       .  A
O315       Ni319   1.929       .  S
O315       Ni337   1.941       .  S
O315       Ni331   1.922       .  S
O315        H338   0.966       .  S
C316        O333   1.279       .  A
C316        O325   1.280       .  A
C316        C448   1.480       .  S
O317       Ni336   1.899       .  S
O317        C323   1.266       .  A
O318       Ni336   1.909       .  S
O318        C320   1.266       .  A
Ni319       O322   1.959       .  S
Ni319       O324   1.900       .  S
C320        O330   1.267       .  A
C320        C511   1.491       .  S
O321       Ni337   1.896       .  S
O321        C327   1.269       .  A
O322        C327   1.284       .  A
C323        C461   1.488       .  S
O324        C326   1.269       .  A
O325       Ni336   1.921       .  S
C326        O332   1.273       .  A
C326        C708   1.485       .  S
C327        C761   1.503       .  S
H328        O329   0.967       .  S
O329       Ni337   1.886       .  S
O329       Ni331   1.870       .  S
O329       Ni336   1.893       .  S
O330       Ni331   1.927       .  S
Ni331       O335   1.880       .  S
Ni331       O333   1.903       .  S
O332       Ni337   1.937       .  S
C334        O335   1.257       .  A
C334        C638   1.496       .  S
O339       Ni345   1.908       .  S
O339        C360   1.268       .  A
O340       Ni363   1.891       .  S
O340        C349   1.263       .  A
O341       Ni345   1.894       .  S
O341       Ni363   1.875       .  S
O341       Ni357   1.884       .  S
O341        H364   0.967       .  S
C342        O359   1.272       .  A
C342        O351   1.281       .  A
C342        C438   1.492   1_556  S
O343       Ni362   1.964       .  S
O343        C349   1.277       .  A
O344       Ni362   1.908       .  S
O344        C346   1.269       .  A
Ni345       O348   1.920       .  S
Ni345       O350   1.908       .  S
C346        O356   1.272       .  A
C346        C431   1.484       .  S
O347       Ni363   1.911       .  S
O347        C353   1.279       .  A
O348        C353   1.278       .  A
C349        C468   1.496       .  S
O350        C352   1.267       .  A
O351       Ni362   1.955       .  S
C352        O358   1.277       .  A
C352        C491   1.501       .  S
C353        C451   1.482       .  S
H354        O355   0.967       .  S
O355       Ni363   1.925       .  S
O355       Ni357   1.940       .  S
O355       Ni362   1.933       .  S
O356       Ni357   1.936       .  S
Ni357       O361   1.929       .  S
Ni357       O359   1.901       .  S
O358       Ni363   1.955       .  S
C360        O361   1.271       .  A
C360        C628   1.480       .  S
O365       Ni371   1.971       .  S
O365        C386   1.280       .  A
O366       Ni389   1.919       .  S
O366        C375   1.269   1_655  A
O367       Ni371   1.930       .  S
O367       Ni389   1.934       .  S
O367       Ni383   1.934       .  S
O367        H390   0.966       .  S
C368        O385   1.285       .  A
C368        O377   1.281   1_655  A
C368        C421   1.484       .  S
O369       Ni388   1.896       .  S
O369        C375   1.268       .  A
O370       Ni388   1.919       .  S
O370        C372   1.268   1_455  A
Ni371       O374   1.967       .  S
Ni371       O376   1.896       .  S
C372        O382   1.270       .  A
C372        C608   1.504       .  S
O373       Ni389   1.885       .  S
O373        C379   1.265       .  A
O374        C379   1.283       .  A
C375        C428   1.475       .  S
O376        C378   1.268       .  A
O377       Ni388   1.915       .  S
C378        O384   1.279       .  A
C378        C501   1.488       .  S
C379        C518   1.502       .  S
H380        O381   0.966       .  S
O381       Ni389   1.889       .  S
O381       Ni383   1.861       .  S
O381       Ni388   1.894   1_655  S
O382       Ni383   1.934       .  S
Ni383       O387   1.883       .  S
Ni383       O385   1.918       .  S
O384       Ni389   1.956       .  S
C386        O387   1.261       .  A
C386        C578   1.501       .  S
O391       Ni397   1.904       .  S
O391        C412   1.270       .  A
O392       Ni415   1.883       .  S
O392        C401   1.260       .  A
O393       Ni397   1.890   1_455  S
O393       Ni415   1.870       .  S
O393       Ni409   1.894       .  S
O393        H416   0.966       .  S
C394        O411   1.274       .  A
C394        O403   1.286       .  A
C394        C851   1.506       .  S
O395       Ni414   1.976       .  S
O395        C401   1.280       .  A
O396       Ni414   1.901       .  S
O396        C398   1.269       .  A
Ni397       O400   1.917       .  S
Ni397       O402   1.920       .  S
C398        O408   1.277       .  A
C398        C801   1.489       .  S
O399       Ni415   1.914       .  S
O399        C405   1.282       .  A
O400        C405   1.282   1_655  A
C401        C441   1.504       .  S
O402        C404   1.269   1_655  A
O403       Ni414   1.966       .  S
C404        O410   1.270       .  A
C404        C648   1.502   1_455  S
C405        C418   1.481       .  S
H406        O407   0.965       .  S
O407       Ni415   1.916       .  S
O407       Ni409   1.922       .  S
O407       Ni414   1.922       .  S
O408       Ni409   1.947       .  S
Ni409       O413   1.932       .  S
Ni409       O411   1.901       .  S
O410       Ni415   1.930       .  S
C412        O413   1.273   1_655  A
C412        C571   1.485       .  S
C417        C418   1.407   1_655  A
C417        C422   1.394       .  A
C417        F424   1.358       .  S
C418        C419   1.411       .  A
C419        C420   1.398       .  A
C419        F426   1.359       .  S
C420        C421   1.412   1_454  A
C420        F425   1.359   1_554  S
C421        C422   1.411   1_556  A
C422        F423   1.358   1_554  S
C427        C428   1.401       .  A
C427        C432   1.395       .  A
C427        F434   1.358       .  S
C428        C429   1.411       .  A
C429        C430   1.406       .  A
C429        F436   1.358       .  S
C430        C431   1.407       .  A
C430        F435   1.358       .  S
C431        C432   1.408       .  A
C432        F433   1.356       .  S
C437        C438   1.409       .  A
C437        C442   1.413       .  A
C437        F444   1.357       .  S
C438        C439   1.406       .  A
C439        C440   1.395       .  A
C439        F446   1.359       .  S
C440        C441   1.415       .  A
C440        F445   1.358       .  S
C441        C442   1.415       .  A
C442        F443   1.357       .  S
C447        C448   1.412       .  A
C447        C452   1.395       .  A
C447        F454   1.359       .  S
C448        C449   1.408       .  A
C449        C450   1.395       .  A
C449        F456   1.358       .  S
C450        C451   1.411       .  A
C450        F455   1.358       .  S
C451        C452   1.409       .  A
C452        F453   1.358       .  S
C457        C458   1.407       .  A
C457        C462   1.393       .  A
C457        F464   1.356       .  S
C458        C459   1.410       .  A
C459        C460   1.412       .  A
C459        F466   1.358       .  S
C460        C461   1.413       .  A
C460        F465   1.358       .  S
C461        C462   1.405       .  A
C462        F463   1.358       .  S
C467        C468   1.411       .  A
C467        C472   1.410       .  A
C467        F474   1.356       .  S
C468        C469   1.407       .  A
C469        C470   1.398       .  A
C469        F476   1.358       .  S
C470        C471   1.414       .  A
C470        F475   1.358       .  S
C471        C472   1.413       .  A
C472        F473   1.357       .  S
C477        C478   1.412       .  A
C477        C482   1.399       .  A
C477        F484   1.358       .  S
C478        C479   1.409       .  A
C479        C480   1.393       .  A
C479        F486   1.358       .  S
C480        C481   1.410       .  A
C480        F485   1.358       .  S
C481        C482   1.411       .  A
C482        F483   1.358       .  S
C487        C488   1.415       .  A
C487        C492   1.408       .  A
C487        F494   1.357       .  S
C488        C489   1.415       .  A
C489        C490   1.405       .  A
C489        F496   1.359       .  S
C490        C491   1.412       .  A
C490        F495   1.359       .  S
C491        C492   1.407       .  A
C492        F493   1.357       .  S
C497        C498   1.411       .  A
C497        C502   1.409       .  A
C497        F504   1.358       .  S
C498        C499   1.402       .  A
C499        C500   1.398       .  A
C499        F506   1.358       .  S
C500        C501   1.411       .  A
C500        F505   1.358       .  S
C501        C502   1.407       .  A
C502        F503   1.357       .  S
C507        C508   1.412       .  A
C507        C512   1.401   1_655  A
C507        F514   1.358       .  S
C508        C509   1.413       .  A
C509        C510   1.403   1_655  A
C509        F516   1.358       .  S
C510        C511   1.410       .  A
C510        F515   1.358       .  S
C511        C512   1.408       .  A
C512        F513   1.358       .  S
C517        C518   1.417       .  A
C517        C522   1.396       .  A
C517        F524   1.359       .  S
C518        C519   1.410       .  A
C519        C520   1.411       .  A
C519        F526   1.357       .  S
C520        C521   1.410       .  A
C520        F525   1.356       .  S
C521        C522   1.405       .  A
C522        F523   1.359       .  S
C527        C528   1.410       .  A
C527        C532   1.392       .  A
C527        F534   1.358       .  S
C528        C529   1.411       .  A
C529        C530   1.398       .  A
C529        F536   1.358       .  S
C530        C531   1.410       .  A
C530        F535   1.359       .  S
C531        C532   1.403       .  A
C532        F533   1.358       .  S
C537        C538   1.406       .  A
C537        C542   1.409       .  A
C537        F544   1.358       .  S
C538        C539   1.408       .  A
C539        C540   1.394       .  A
C539        F546   1.356       .  S
C540        C541   1.400       .  A
C540        F545   1.358       .  S
C541        C542   1.412       .  A
C542        F543   1.358       .  S
C547        C548   1.414       .  A
C547        C552   1.393       .  A
C547        F554   1.358       .  S
C548        C549   1.412       .  A
C549        C550   1.414       .  A
C549        F556   1.358       .  S
C550        C551   1.414       .  A
C550        F555   1.355       .  S
C551        C552   1.404       .  A
C552        F553   1.359       .  S
C557        C558   1.414       .  A
C557        C562   1.397       .  A
C557        F564   1.358       .  S
C558        C559   1.413       .  A
C559        C560   1.409       .  A
C559        F566   1.357       .  S
C560        C561   1.408       .  A
C560        F565   1.355       .  S
C561        C562   1.408       .  A
C562        F563   1.359       .  S
C567        C568   1.407       .  A
C567        C572   1.409       .  A
C567        F574   1.357       .  S
C568        C569   1.410       .  A
C569        C570   1.398       .  A
C569        F576   1.356       .  S
C570        C571   1.403       .  A
C570        F575   1.359       .  S
C571        C572   1.411       .  A
C572        F573   1.357       .  S
C577        C578   1.412       .  A
C577        C582   1.415   1_556  A
C577        F584   1.357       .  S
C578        C579   1.411       .  A
C579        C580   1.397   1_556  A
C579        F586   1.359       .  S
C580        C581   1.412       .  A
C580        F585   1.359       .  S
C581        C582   1.413       .  A
C582        F583   1.357       .  S
C587        C588   1.402       .  A
C587        C592   1.392       .  A
C587        F594   1.358       .  S
C588        C589   1.412       .  A
C589        C590   1.406       .  A
C589        F596   1.358       .  S
C590        C591   1.405       .  A
C590        F595   1.358       .  S
C591        C592   1.405       .  A
C592        F593   1.355       .  S
C597        C598   1.412       .  A
C597        C602   1.395       .  A
C597        F604   1.358       .  S
C598        C599   1.407       .  A
C599        C600   1.396       .  A
C599        F606   1.359       .  S
C600        C601   1.413       .  A
C600        F605   1.358       .  S
C601        C602   1.408       .  A
C602        F603   1.358       .  S
C607        C608   1.412       .  A
C607        C612   1.406       .  A
C607        F614   1.358       .  S
C608        C609   1.412   1_655  A
C609        C610   1.405       .  A
C609        F616   1.357       .  S
C610        C611   1.411       .  A
C610        F615   1.357       .  S
C611        C612   1.416   1_455  A
C612        F613   1.358       .  S
C617        C618   1.405       .  A
C617        C622   1.404       .  A
C617        F624   1.357       .  S
C618        C619   1.408       .  A
C619        C620   1.396       .  A
C619        F626   1.356       .  S
C620        C621   1.402       .  A
C620        F625   1.358   1_565  S
C621        C622   1.409       .  A
C622        F623   1.358       .  S
C627        C628   1.412       .  A
C627        C632   1.409       .  A
C627        F634   1.357       .  S
C628        C629   1.401       .  A
C629        C630   1.394       .  A
C629        F636   1.359       .  S
C630        C631   1.408       .  A
C630        F635   1.353       .  S
C631        C632   1.405       .  A
C632        F633   1.357       .  S
C637        C638   1.411       .  A
C637        C642   1.396       .  A
C637        F644   1.359       .  S
C638        C639   1.411       .  A
C639        C640   1.409       .  A
C639        F646   1.355       .  S
C640        C641   1.409       .  A
C640        F645   1.357   1_565  S
C641        C642   1.412       .  A
C642        F643   1.359       .  S
C647        C648   1.414   1_455  A
C647        C652   1.407       .  A
C647        F654   1.358       .  S
C648        C649   1.411       .  A
C649        C650   1.403       .  A
C649        F656   1.358       .  S
C650        C651   1.411       .  A
C650        F655   1.358       .  S
C651        C652   1.412   1_655  A
C652        F653   1.358       .  S
C657        C658   1.413       .  A
C657        C662   1.404       .  A
C657        F664   1.359       .  S
C658        C659   1.411       .  A
C659        C660   1.414       .  A
C659        F666   1.356       .  S
C660        C661   1.414       .  A
C660        F665   1.357       .  S
C661        C662   1.417       .  A
C662        F663   1.359       .  S
C667        C668   1.410       .  A
C667        C672   1.408       .  A
C667        F674   1.357       .  S
C668        C669   1.409       .  A
C669        C670   1.392       .  A
C669        F676   1.358       .  S
C670        C671   1.406       .  A
C670        F675   1.359       .  S
C671        C672   1.409       .  A
C672        F673   1.358       .  S
C677        C678   1.410       .  A
C677        C682   1.412       .  A
C677        F684   1.357       .  S
C678        C679   1.414   1_565  A
C679        C680   1.398       .  A
C679        F686   1.359       .  S
C680        C681   1.412       .  A
C680        F685   1.359       .  S
C681        C682   1.413   1_545  A
C682        F683   1.357       .  S
C687        C688   1.411       .  A
C687        C692   1.392   1_565  A
C687        F694   1.359       .  S
C688        C689   1.405   1_655  A
C689        C690   1.395       .  A
C689        F696   1.358       .  S
C690        C691   1.410   1_565  A
C690        F695   1.358       .  S
C691        C692   1.404   1_455  A
C692        F693   1.359       .  S
C697        C698   1.413       .  A
C697        C702   1.407       .  A
C697        F704   1.358       .  S
C698        C699   1.413       .  A
C699        C700   1.408       .  A
C699        F706   1.358       .  S
C700        C701   1.411       .  A
C700        F705   1.358       .  S
C701        C702   1.412       .  A
C702        F703   1.358       .  S
C707        C708   1.408       .  A
C707        C712   1.395       .  A
C707        F714   1.356       .  S
C708        C709   1.407       .  A
C709        C710   1.408       .  A
C709        F716   1.358       .  S
C710        C711   1.411       .  A
C710        F715   1.357       .  S
C711        C712   1.404       .  A
C712        F713   1.358       .  S
C717        C718   1.416       .  A
C717        C722   1.415       .  A
C717        F724   1.357       .  S
C718        C719   1.414       .  A
C719        C720   1.394       .  A
C719        F726   1.358       .  S
C720        C721   1.407       .  A
C720        F725   1.359       .  S
C721        C722   1.409       .  A
C722        F723   1.357       .  S
C727        C728   1.411       .  A
C727        C732   1.405       .  A
C727        F734   1.358       .  S
C728        C729   1.401       .  A
C729        C730   1.397       .  A
C729        F736   1.359       .  S
C730        C731   1.411       .  A
C730        F735   1.357       .  S
C731        C732   1.405       .  A
C732        F733   1.357       .  S
C737        C738   1.411       .  A
C737        C742   1.416   1_565  A
C737        F744   1.355   1_565  S
C738        C739   1.409       .  A
C739        C740   1.401       .  A
C739        F746   1.359       .  S
C740        C741   1.416       .  A
C740        F745   1.358       .  S
C741        C742   1.416   1_565  A
C742        F743   1.357       .  S
C747        C748   1.411       .  A
C747        C752   1.407       .  A
C747        F754   1.358       .  S
C748        C749   1.412       .  A
C749        C750   1.402       .  A
C749        F756   1.358       .  S
C750        C751   1.410       .  A
C750        F755   1.358       .  S
C751        C752   1.414       .  A
C752        F753   1.358       .  S
C757        C758   1.408       .  A
C757        C762   1.407       .  A
C757        F764   1.354       .  S
C758        C759   1.403       .  A
C759        C760   1.402       .  A
C759        F766   1.358       .  S
C760        C761   1.418       .  A
C760        F765   1.358       .  S
C761        C762   1.411       .  A
C762        F763   1.357       .  S
C767        C768   1.407       .  A
C767        C772   1.398       .  A
C767        F774   1.359   1_545  S
C768        C769   1.410       .  A
C769        C770   1.407       .  A
C769        F776   1.357       .  S
C770        C771   1.406       .  A
C770        F775   1.357       .  S
C771        C772   1.408       .  A
C772        F773   1.358       .  S
C777        C778   1.412       .  A
C777        C782   1.396   1_565  A
C777        F784   1.358       .  S
C778        C779   1.408       .  A
C779        C780   1.398       .  A
C779        F786   1.358       .  S
C780        C781   1.413   1_565  A
C780        F785   1.358       .  S
C781        C782   1.410       .  A
C782        F783   1.359       .  S
C787        C788   1.412       .  A
C787        C792   1.401       .  A
C787        F794   1.358       .  S
C788        C789   1.411       .  A
C789        C790   1.407       .  A
C789        F796   1.358       .  S
C790        C791   1.416       .  A
C790        F795   1.358       .  S
C791        C792   1.409       .  A
C792        F793   1.357       .  S
C797        C798   1.412       .  A
C797        C802   1.410       .  A
C797        F804   1.357       .  S
C798        C799   1.403       .  A
C799        C800   1.397       .  A
C799        F806   1.359       .  S
C800        C801   1.411       .  A
C800        F805   1.358       .  S
C801        C802   1.407       .  A
C802        F803   1.357       .  S
C807        C808   1.412   1_565  A
C807        C812   1.413       .  A
C807        F814   1.356       .  S
C808        C809   1.409       .  A
C809        C810   1.400       .  A
C809        F816   1.358       .  S
C810        C811   1.415   1_545  A
C810        F815   1.358       .  S
C811        C812   1.414       .  A
C812        F813   1.357       .  S
C817        C818   1.404       .  A
C817        C822   1.394       .  A
C817        F824   1.358   1_545  S
C818        C819   1.411       .  A
C819        C820   1.407       .  A
C819        F826   1.357       .  S
C820        C821   1.406       .  A
C820        F825   1.358       .  S
C821        C822   1.406       .  A
C822        F823   1.357       .  S
C827        C828   1.409       .  A
C827        C832   1.410   1_556  A
C827        F834   1.354       .  S
C828        C829   1.402       .  A
C829        C830   1.400   1_556  A
C829        F836   1.358       .  S
C830        C831   1.417       .  A
C830        F835   1.357       .  S
C831        C832   1.414       .  A
C832        F833   1.358       .  S
C837        C838   1.413       .  A
C837        C842   1.404   1_455  A
C837        F844   1.358       .  S
C838        C839   1.412       .  A
C839        C840   1.404   1_455  A
C839        F846   1.358       .  S
C840        C841   1.410       .  A
C840        F845   1.358       .  S
C841        C842   1.410       .  A
C842        F843   1.358       .  S
C847        C848   1.408       .  A
C847        C852   1.395       .  A
C847        F854   1.359       .  S
C848        C849   1.414       .  A
C849        C850   1.415       .  A
C849        F856   1.356       .  S
C850        C851   1.414       .  A
C850        F855   1.357       .  S
C851        C852   1.414       .  A
C852        F853   1.358       .  S
C857        C858   1.406       .  A
C857        C862   1.393       .  A
C857        F864   1.359       .  S
C858        C859   1.413       .  A
C859        C860   1.413       .  A
C859        F866   1.357       .  S
C860        C861   1.410       .  A
C860        F865   1.357       .  S
C861        C862   1.411       .  A
C862        F863   1.357       .  S
C867        C868   1.410       .  A
C867        C872   1.393       .  A
C867        F874   1.358       .  S
C868        C869   1.411       .  A
C869        C870   1.398       .  A
C869        F876   1.359       .  S
C870        C871   1.411       .  A
C870        F875   1.359       .  S
C871        C872   1.404       .  A
C872        F873   1.358       .  S
C877        C878   1.406       .  A
C877        C882   1.409       .  A
C877        F884   1.358       .  S
C878        C879   1.408       .  A
C879        C880   1.389       .  A
C879        F886   1.356       .  S
C880        C881   1.399       .  A
C880        F885   1.358       .  S
C881        C882   1.413       .  A
C882        F883   1.358       .  S
C887        C888   1.416       .  A
C887        C892   1.404       .  A
C887        F894   1.358       .  S
C888        C889   1.413       .  A
C889        C890   1.407       .  A
C889        F896   1.357       .  S
C890        C891   1.407       .  A
C890        F895   1.356       .  S
C891        C892   1.404       .  A
C892        F893   1.358       .  S
