geometry optimzed in LAMMPS
_audit_creation_date              2020-12-01 
_audit_creation_method            'lammps2cif' 
_symmetry_space_group_name_H-M    'P1' 
_symmetry_Int_Tables_number       1 
_symmetry_cell_setting            triclinic 
loop_ 
_symmetry_equiv_pos_as_xyz 
  x,y,z 
_cell_length_a                    69.19856901 
_cell_length_b                    69.24947879284653 
_cell_length_c                    29.316992921334503 
_cell_angle_alpha                 90.57687550354814 
_cell_angle_beta                  90.07622625449174 
_cell_angle_gamma                 90.0701901013835 
loop_ 
_atom_site_label 
_atom_site_type_symbol 
_atom_site_fract_x 
_atom_site_fract_y 
_atom_site_fract_z 
_atom_site_charge 
O1          O  0.99044534  0.13129778  0.59684008    -0.85100
O2          O  0.02904597  0.12386298  0.58701596    -0.82100
C3          C  0.04453931  0.11741972  0.57037838     0.98400
O4          O  0.04462402  0.10906303  0.53167306    -0.82200
O5          O  0.01828061  0.07655770  0.52638788    -0.84800
C6          C  0.00202349  0.06805015  0.52273726     1.02900
O7          O  0.98726860  0.07734298  0.51066776    -0.77600
O8          O  0.98113465  0.10130019  0.58447019    -0.77800
C9          C  0.98443383  0.11523586  0.61152579     1.02800
O10         O  0.99098048  0.14990738  0.50749980    -0.85100
O11         O  0.02957119  0.14468527  0.50325622    -0.82200
C12         C  0.03222241  0.13984622  0.46215078     0.98400
O13         O  0.02857780  0.12286538  0.44843004    -0.82200
O14         O  0.00540577  0.09073499  0.44026243    -0.84800
C15         C  0.99079449  0.09935631  0.42446880     1.02900
O16         O  0.97939902  0.10846566  0.45062706    -0.77600
O17         O  0.96753454  0.13051787  0.52521069    -0.77800
C18         C  0.97325379  0.14608942  0.50816628     1.02800
Cr19       Cr  0.00955000  0.13578680  0.54674924     1.93700
Cr20       Cr  0.02298790  0.10062791  0.48946408     1.93200
Cr21       Cr  0.98053424  0.10500730  0.51773378     1.39100
O22         O  0.00459289  0.11366258  0.51852601    -1.22900
O23         O  0.99818512  0.90386348  0.46300148    -0.85100
O24         O  0.99124147  0.92571115  0.54099693    -0.82100
C25         C  0.97687995  0.93501157  0.52711533     0.98400
O26         O  0.96114396  0.92622617  0.51907689    -0.82200
O27         O  0.93554248  0.89421143  0.50463577    -0.84800
C28         C  0.93633963  0.88444478  0.46789236     1.02900
O29         O  0.95166696  0.87612385  0.45550529    -0.77600
O30         O  0.99058757  0.87360426  0.44704734    -0.77800
C31         C  0.99485712  0.89056122  0.43410328     1.02800
O32         O  0.01361239  0.87421796  0.51873852    -0.85100
O33         O  0.99891055  0.89349356  0.59585919    -0.82200
C34         C  0.98634215  0.90097019  0.62213047     0.98400
O35         O  0.97149007  0.90933969  0.60623380    -0.82200
O36         O  0.94722207  0.87888607  0.58910800    -0.84800
C37         C  0.94555587  0.86149804  0.57639819     1.02900
O38         O  0.95268731  0.85547682  0.53937218    -0.77600
O39         O  0.99161627  0.85358262  0.53673265    -0.77800
C40         C  0.00910257  0.85841226  0.53633919     1.02800
Cr41       Cr  0.99869933  0.89856444  0.52931191     1.93700
Cr42       Cr  0.95543476  0.90134585  0.55206041     1.93200
Cr43       Cr  0.97202719  0.86639917  0.49681807     1.39100
O44         O  0.97497150  0.88879202  0.52569329    -1.22900
O45         O  0.11279378  0.25145768  0.71205137    -0.85100
O46         O  0.11870524  0.21253236  0.71410676    -0.82100
C47         C  0.12557403  0.19663979  0.72680434     0.98400
O48         O  0.13446021  0.19529812  0.76452928    -0.82200
O49         O  0.16728684  0.22071615  0.77432450    -0.84800
C50         C  0.17611778  0.23662254  0.78066716     1.02900
O51         O  0.16710872  0.25096277  0.79641696    -0.77600
O52         O  0.14338733  0.25866132  0.72275428    -0.77800
C53         C  0.12920212  0.25582435  0.69626273     1.02800
O54         O  0.09424409  0.24956409  0.80070351    -0.85100
O55         O  0.09836524  0.21041704  0.79844384    -0.82200
C56         C  0.10375474  0.20558872  0.83778611     0.98400
O57         O  0.12091082  0.20835323  0.85107824    -0.82200
O58         O  0.15277771  0.23129799  0.86382299    -0.84800
C59         C  0.14435417  0.24578761  0.88162167     1.02900
O60         O  0.13600906  0.25816892  0.85699513    -0.77600
O61         O  0.11460187  0.27247120  0.78498190    -0.77800
C62         C  0.09868168  0.26719308  0.80134738     1.02800
Cr63       Cr  0.10771569  0.23128411  0.75835925     1.93700
Cr64       Cr  0.14306774  0.21529788  0.81097089     1.93200
Cr65       Cr  0.13963428  0.25842407  0.78994867     1.39100
O66         O  0.13017594  0.23473044  0.78619951    -1.22900
O67         O  0.34090485  0.24503130  0.81344598    -0.85100
O68         O  0.31795258  0.25000582  0.73712727    -0.82100
C69         C  0.30839213  0.26460204  0.74928636     0.98400
O70         O  0.31681895  0.28083122  0.75413314    -0.82200
O71         O  0.34882623  0.30733775  0.76257677    -0.84800
C72         C  0.35702424  0.30714672  0.80130147     1.02900
O73         O  0.36432104  0.29187087  0.81656865    -0.77600
O74         O  0.37109820  0.25342593  0.82542405    -0.77800
C75         C  0.35457832  0.24899327  0.84067164     1.02800
O76         O  0.37094020  0.23038236  0.75549365    -0.85100
O77         O  0.34979873  0.24199318  0.67938240    -0.82200
C78         C  0.34102033  0.25337587  0.65287508     0.98400
O79         O  0.33255724  0.26830680  0.66817899    -0.82200
O80         O  0.36404367  0.29236802  0.67884920    -0.84800
C81         C  0.38095547  0.29607168  0.69291161     1.02900
O82         O  0.38584675  0.29239632  0.73336466    -0.77600
O83         O  0.39048160  0.25345281  0.73650259    -0.77800
C84         C  0.38651724  0.23574064  0.73753979     1.02800
Cr85       Cr  0.34553821  0.24352016  0.74649771     1.93700
Cr86       Cr  0.34140223  0.28592531  0.71861473     1.93200
Cr87       Cr  0.37632808  0.27234733  0.77592672     1.39100
O88         O  0.35433238  0.26754790  0.74724547    -1.22900
O89         O  0.83468769  0.74501400  0.32001904    -0.85100
O90         O  0.81319781  0.75272754  0.24357924    -0.82100
C91         C  0.80496737  0.76787929  0.25758745     0.98400
O92         O  0.81420677  0.78368526  0.25997852    -0.82200
O93         O  0.84750687  0.80781306  0.26973934    -0.84800
C94         C  0.85441039  0.80731673  0.30983055     1.02900
O95         O  0.85931836  0.79148737  0.32715379    -0.77600
O96         O  0.86479514  0.75259091  0.33619939    -0.77800
C97         C  0.84800646  0.74773634  0.34892537     1.02800
O98         O  0.86473073  0.72986625  0.26360099    -0.85100
O99         O  0.84524954  0.74264132  0.18688316    -0.82200
C100        C  0.83803439  0.75467340  0.15949937     0.98400
O101        O  0.82978872  0.76977647  0.17441964    -0.82200
O102        O  0.86280961  0.79097181  0.18815007    -0.84800
C103        C  0.87881698  0.79559610  0.20581447     1.02900
O104        O  0.88247316  0.79179149  0.24695280    -0.77600
O105        O  0.88571275  0.75242189  0.24928702    -0.77800
C106        C  0.88087055  0.73490649  0.24801432     1.02800
Cr107      Cr  0.84013661  0.74418032  0.25361807     1.93700
Cr108      Cr  0.83916863  0.78673181  0.22569169     1.93200
Cr109      Cr  0.87157304  0.77160968  0.28769315     1.39100
O110        O  0.85016980  0.76770578  0.25610849    -1.22900
O111        O  0.61775784  0.73380216  0.18508259    -0.85100
O112        O  0.61002585  0.69961413  0.22531349    -0.82100
C113        C  0.62503315  0.69031129  0.21435347     0.98400
O114        O  0.64136109  0.69547698  0.22974745    -0.82200
O115        O  0.66938696  0.71797821  0.28020109    -0.84800
C116        C  0.67573169  0.73230031  0.25805831     1.02900
O117        O  0.66423963  0.74423222  0.24139924    -0.77600
O118        O  0.63192889  0.76043105  0.20953181    -0.77800
C119        C  0.62717739  0.74894203  0.17711895     1.02800
O120        O  0.59758326  0.75463089  0.25580990    -0.85100
O121        O  0.59571738  0.71981140  0.30329515    -0.82200
C122        C  0.60074998  0.70398869  0.32074657     0.98400
O123        O  0.61677529  0.69609223  0.31021663    -0.82200
O124        O  0.64250731  0.71916863  0.35307097    -0.84800
C125        C  0.64848803  0.73554104  0.36534608     1.02900
O126        O  0.65198000  0.74867000  0.33642150    -0.77600
O127        O  0.61884144  0.76339890  0.30637515    -0.77800
C128        C  0.60233214  0.76499056  0.28964030     1.02800
Cr129      Cr  0.60693833  0.72727403  0.24428739     1.93700
Cr130      Cr  0.64180279  0.70869497  0.29091007     1.93200
Cr131      Cr  0.64091233  0.75257601  0.27307149     1.39100
O132        O  0.63009844  0.72954193  0.26954459    -1.22900
O133        O  0.49399740  0.62340286  0.06898334    -0.85100
O134        O  0.53277205  0.61998905  0.05850096    -0.82100
C135        C  0.54865175  0.61427829  0.04240948     0.98400
O136        O  0.54954981  0.60696707  0.00262352    -0.82200
O137        O  0.52490364  0.57363030  0.98982306    -0.84800
C138        C  0.50916883  0.56440191  0.98414884     1.02900
O139        O  0.49443599  0.57313568  0.97015368    -0.77600
O140        O  0.48675788  0.59340296  0.04978843    -0.77800
C141        C  0.48947501  0.60632297  0.07997572     1.02800
O142        O  0.49233063  0.64568419  0.98398269    -0.85100
O143        O  0.53181908  0.64327768  0.97900452    -0.82200
C144        C  0.53643237  0.63950729  0.93822746     0.98400
O145        O  0.53377067  0.62289923  0.92119524    -0.82200
O146        O  0.51207439  0.59068839  0.90461988    -0.84800
C147        C  0.49703798  0.59917483  0.89030739     1.02900
O148        O  0.48476385  0.60600879  0.91810825    -0.77600
O149        O  0.47083471  0.62363365  0.99709197    -0.77800
C150        C  0.47496149  0.64022430  0.98319093     1.02800
Cr151      Cr  0.51238192  0.63151661  0.02012650     1.93700
Cr152      Cr  0.52869319  0.59915112  0.95738641     1.93200
Cr153      Cr  0.48588961  0.59978286  0.98400641     1.39100
O154        O  0.50925900  0.61013009  0.98750715    -1.22900
O155        O  0.50225176  0.39844312  0.93291653    -0.85100
O156        O  0.49904941  0.42143765  0.00999775    -0.82100
C157        C  0.48438617  0.43133968  0.00017422     0.98400
O158        O  0.46800533  0.42320119  0.99612977    -0.82200
O159        O  0.44029385  0.39209074  0.99143572    -0.84800
C160        C  0.43919007  0.38357252  0.95302200     1.02900
O161        O  0.45388600  0.37597940  0.93508951    -0.77600
O162        O  0.49203795  0.36873510  0.91967095    -0.77800
C163        C  0.49779644  0.38497711  0.90538128     1.02800
O164        O  0.51698225  0.36801322  0.98681655    -0.85100
O165        O  0.50720633  0.38879439  0.06563196    -0.82200
C166        C  0.49650182  0.39779657  0.09364132     0.98400
O167        O  0.48197857  0.40723314  0.07991736    -0.82200
O168        O  0.45680793  0.37695380  0.07221344    -0.84800
C169        C  0.45228498  0.36016084  0.05894158     1.02900
O170        O  0.45528572  0.35464979  0.01837901    -0.77600
O171        O  0.49375597  0.34904567  0.00773387    -0.77800
C172        C  0.51151320  0.35250318  0.00448435     1.02800
Cr173      Cr  0.50464186  0.39360103  0.99898814     1.93700
Cr174      Cr  0.46299460  0.39900746  0.03192629     1.93200
Cr175      Cr  0.47428639  0.36370567  0.97217669     1.39100
O176        O  0.48033777  0.38552733  0.00058056    -1.22900
O177        O  0.11320185  0.75574561  0.84436545    -0.85100
O178        O  0.11953744  0.79394502  0.83433716    -0.82100
C179        C  0.12699405  0.80932396  0.82016493     0.98400
O180        O  0.13499074  0.81000738  0.78124396    -0.82200
O181        O  0.16776234  0.78466611  0.77394251    -0.84800
C182        C  0.17660582  0.76862783  0.77142781     1.02900
O183        O  0.16755456  0.75342891  0.76102092    -0.77600
O184        O  0.14374062  0.74825412  0.83516857    -0.77800
C185        C  0.12961700  0.75198274  0.86109304     1.02800
O186        O  0.09473872  0.75477859  0.75491109    -0.85100
O187        O  0.09863406  0.79369429  0.75000256    -0.82200
C188        C  0.10368499  0.79691020  0.70946757     0.98400
O189        O  0.12080686  0.79374082  0.69662400    -0.82200
O190        O  0.15291781  0.77071236  0.68892428    -0.84800
C191        C  0.14460375  0.75559831  0.67412873     1.02900
O192        O  0.13653963  0.74393525  0.70105385    -0.77600
O193        O  0.11488251  0.73232252  0.77488549    -0.77800
C194        C  0.09915682  0.73721014  0.75675107     1.02800
Cr195      Cr  0.10819605  0.77419546  0.79388954     1.93700
Cr196      Cr  0.14321304  0.78849489  0.73788373     1.93200
Cr197      Cr  0.14005179  0.74613239  0.76803346     1.39100
O198        O  0.13060974  0.76986966  0.76683863    -1.22900
O199        O  0.34918894  0.76057319  0.69572530    -0.85100
O200        O  0.31709305  0.74287598  0.72661908    -0.82100
C201        C  0.30571432  0.73223955  0.74795518     0.98400
O202        O  0.31243598  0.72001050  0.77552935    -0.82200
O203        O  0.34139919  0.69704142  0.73086743    -0.84800
C204        C  0.35782089  0.69220102  0.71568908     1.02900
O205        O  0.37275232  0.70186160  0.72634090    -0.77600
O206        O  0.36775669  0.73547238  0.68047286    -0.77800
C207        C  0.35797361  0.74971106  0.66752906     1.02800
O208        O  0.35924023  0.77018593  0.78903595    -0.85100
O209        O  0.32702273  0.75306807  0.82097250    -0.82200
C210        C  0.33100755  0.74199326  0.85399612     0.98400
O211        O  0.33859193  0.72564616  0.84787838    -0.82200
O212        O  0.36495235  0.70001475  0.81267105    -0.84800
C213        C  0.38077205  0.70826267  0.82324855     1.02900
O214        O  0.38533485  0.72395815  0.80478796    -0.77600
O215        O  0.38418272  0.75735175  0.75448333    -0.77800
C216        C  0.37668117  0.77082559  0.77773757     1.02800
Cr217      Cr  0.33912711  0.75480788  0.75846365     1.93700
Cr218      Cr  0.34016443  0.71218771  0.78905478     1.93200
Cr219      Cr  0.37560537  0.72994951  0.74326063     1.39100
O220        O  0.35162050  0.73251087  0.76367499    -1.22900
O221        O  0.00624886  0.87713800  0.95002807    -0.85100
O222        O  0.03892337  0.86950217  0.99843472    -0.82100
C223        C  0.04947753  0.88380193  0.98873277     0.98400
O224        O  0.04490178  0.90060124  0.00214684    -0.82200
O225        O  0.02242529  0.93055090  0.04424705    -0.84800
C226        C  0.00974609  0.93735198  0.01758770     1.02900
O227        O  0.99801831  0.92632710  0.99782243    -0.77600
O228        O  0.98020569  0.89404749  0.96680657    -0.77800
C229        C  0.99163071  0.88648148  0.93763907     1.02800
O230        O  0.98249650  0.86082331  0.01963810    -0.85100
O231        O  0.01536250  0.85805154  0.07320285    -0.82200
C232        C  0.03069579  0.86247094  0.09401928     0.98400
O233        O  0.03990868  0.87780132  0.08430739    -0.82200
O234        O  0.01625519  0.90525499  0.11835868    -0.84800
C235        C  0.00000102  0.91281382  0.12516312     1.02900
O236        O  0.98896351  0.91728115  0.09230861    -0.77600
O237        O  0.97301221  0.88435045  0.06380026    -0.77800
C238        C  0.97139806  0.86726450  0.05028845     1.02800
Cr239      Cr  0.01055289  0.86818221  0.01194514     1.93700
Cr240      Cr  0.02945550  0.90290879  0.05958533     1.93200
Cr241      Cr  0.98664872  0.90453005  0.03015399     1.39100
O242        O  0.00888008  0.89207409  0.03370017    -1.22900
O243        O  0.99898667  0.09899267  0.08431392    -0.85100
O244        O  0.99151824  0.07559811  0.00995184    -0.82100
C245        C  0.97659354  0.06715582  0.02396069     0.98400
O246        O  0.96091594  0.07635971  0.02866908    -0.82200
O247        O  0.93607443  0.10933034  0.03681003    -0.84800
C248        C  0.93713980  0.11849486  0.07448368     1.02900
O249        O  0.95292181  0.12554448  0.08806439    -0.77600
O250        O  0.99174433  0.12961770  0.09601456    -0.77800
C251        C  0.99616872  0.11310781  0.11113785     1.02800
O252        O  0.01443992  0.12743147  0.02551559    -0.85100
O253        O  0.00040123  0.10671182  0.95094919    -0.82200
C254        C  0.98811889  0.09875960  0.92483107     0.98400
O255        O  0.97334012  0.09034444  0.94086549    -0.82200
O256        O  0.95038048  0.12208823  0.95163995    -0.84800
C257        C  0.94768912  0.13930861  0.96419201     1.02900
O258        O  0.95324027  0.14543616  0.00270974    -0.77600
O259        O  0.99231879  0.14791672  0.00611344    -0.77800
C260        C  0.00981962  0.14322070  0.00788272     1.02800
Cr261      Cr  0.99965148  0.10285337  0.01769338     1.93700
Cr262      Cr  0.95663157  0.10031780  0.99213263     1.93200
Cr263      Cr  0.97287358  0.13546637  0.04623071     1.39100
O264        O  0.97606126  0.11282125  0.01910853    -1.22900
O265        O  0.49565661  0.60792477  0.54754753    -0.85100
O266        O  0.47806035  0.57522955  0.51727415    -0.82100
C267        C  0.46636007  0.56397772  0.49808061     0.98400
O268        O  0.45374902  0.57054510  0.47089208    -0.82200
O269        O  0.43104391  0.60041759  0.51251763    -0.84800
C270        C  0.42644312  0.61712921  0.52650295     1.02900
O271        O  0.43654811  0.63158672  0.51578616    -0.77600
O272        O  0.46955277  0.62475425  0.56446859    -0.77800
C273        C  0.48445850  0.61574959  0.57666154     1.02800
O274        O  0.50356680  0.61738095  0.45256125    -0.85100
O275        O  0.48731664  0.58444062  0.42292367    -0.82200
C276        C  0.47626089  0.58861397  0.38989674     0.98400
O277        O  0.45975214  0.59569800  0.39626730    -0.82200
O278        O  0.43554888  0.62309304  0.42967003    -0.84800
C279        C  0.44460266  0.63849815  0.41975256     1.02900
O280        O  0.45992242  0.64298551  0.44044734    -0.77600
O281        O  0.49237542  0.64128948  0.49357018    -0.77800
C282        C  0.50458499  0.63458007  0.46581523     1.02800
Cr283      Cr  0.48937515  0.59716405  0.48490883     1.93700
Cr284      Cr  0.44646579  0.59814032  0.45497484     1.93200
Cr285      Cr  0.46480495  0.63327724  0.50195227     1.39100
O286        O  0.46695739  0.60936609  0.48067561    -1.22900
O287        O  0.49269258  0.36998775  0.42490028    -0.85100
O288        O  0.53104064  0.37793592  0.43571127    -0.82100
C289        C  0.54619638  0.38550189  0.45177560     0.98400
O290        O  0.54602427  0.39431216  0.49000727    -0.82200
O291        O  0.51969857  0.42638275  0.49348348    -0.84800
C292        C  0.50336853  0.43473436  0.49459212     1.02900
O293        O  0.48837374  0.42542653  0.50495831    -0.77600
O294        O  0.48394930  0.40032120  0.43253234    -0.77800
C295        C  0.48805338  0.38597628  0.40737646     1.02800
O296        O  0.49236255  0.35323000  0.51687144    -0.85100
O297        O  0.53183597  0.35877631  0.52055688    -0.82200
C298        C  0.53530261  0.36454896  0.56064097     0.98400
O299        O  0.52975791  0.38099640  0.57410254    -0.82200
O300        O  0.50573364  0.41258400  0.57859554    -0.84800
C301        C  0.49133999  0.40334171  0.59344742     1.02900
O302        O  0.47992920  0.39469392  0.56644042    -0.77600
O303        O  0.46917667  0.37172984  0.49336079    -0.77800
C304        C  0.47456283  0.35694766  0.51451056     1.02800
Cr305      Cr  0.51142236  0.36653496  0.47635987     1.93700
Cr306      Cr  0.52406480  0.40265838  0.53135583     1.93200
Cr307      Cr  0.48198991  0.39754121  0.49947888     1.39100
O308        O  0.50612217  0.38912301  0.50177615    -1.22900
O309        O  0.83266141  0.25839287  0.23156646    -0.85100
O310        O  0.81298702  0.24943923  0.31001224    -0.82100
C311        C  0.80433394  0.23513682  0.29302578     0.98400
O312        O  0.81342073  0.21946147  0.28595954    -0.82200
O313        O  0.84695969  0.19487506  0.27343434    -0.84800
C314        C  0.85438136  0.19611073  0.23406927     1.02900
O315        O  0.85901696  0.21229496  0.21848693    -0.77600
O316        O  0.86242141  0.25109815  0.21134586    -0.77800
C317        C  0.84519140  0.25540096  0.20094389     1.02800
O318        O  0.86331268  0.27351914  0.28599273    -0.85100
O319        O  0.84561796  0.25863868  0.36385172    -0.82200
C320        C  0.83818983  0.24619765  0.39003138     0.98400
O321        O  0.82998731  0.23124164  0.37353234    -0.82200
O322        O  0.86225732  0.21006936  0.35543601    -0.84800
C323        C  0.87897690  0.20784030  0.33909846     1.02900
O324        O  0.88296061  0.21264268  0.29870509    -0.77600
O325        O  0.88534954  0.25160317  0.29540584    -0.77800
C326        C  0.88006632  0.26891654  0.29816240     1.02800
Cr327      Cr  0.83943505  0.25839270  0.29742605     1.93700
Cr328      Cr  0.83868184  0.21531928  0.31939502     1.93200
Cr329      Cr  0.87087316  0.23220543  0.25836460     1.39100
O330        O  0.84973945  0.23510079  0.29158794    -1.22900
O331        O  0.61321329  0.25539623  0.32885556    -0.85100
O332        O  0.61878443  0.29330448  0.31339931    -0.82100
C333        C  0.62608035  0.30825651  0.29667350     0.98400
O334        O  0.63427775  0.30773389  0.25817928    -0.82200
O335        O  0.66566341  0.28077199  0.25471827    -0.84800
C336        C  0.67394652  0.26449419  0.25102297     1.02900
O337        O  0.66471045  0.25010846  0.23623650    -0.77600
O338        O  0.64255885  0.24486975  0.31308392    -0.77800
C339        C  0.62975589  0.24966942  0.34186056     1.02800
O340        O  0.59204026  0.25255935  0.24114561    -0.85100
O341        O  0.59692621  0.29090667  0.22946561    -0.82200
C342        C  0.60239478  0.29427432  0.18912516     0.98400
O343        O  0.61955371  0.29119780  0.17658164    -0.82200
O344        O  0.65049204  0.26730988  0.16803273    -0.84800
C345        C  0.64087743  0.25315545  0.15238583     1.02900
O346        O  0.63245699  0.24163776  0.17929369    -0.77600
O347        O  0.61245289  0.22990165  0.25718022    -0.77800
C348        C  0.59632741  0.23494264  0.24186956     1.02800
Cr349      Cr  0.60685467  0.27257553  0.27609273     1.93700
Cr350      Cr  0.64169014  0.28545399  0.21723852     1.93200
Cr351      Cr  0.63738063  0.24333842  0.24640054     1.39100
O352        O  0.62859444  0.26737188  0.24691100    -1.22900
O353        O  0.48500262  0.87632018  0.06762345    -0.85100
O354        O  0.44610701  0.87922291  0.05798486    -0.82100
C355        C  0.43038823  0.88644357  0.04492734     0.98400
O356        O  0.42943092  0.89621605  0.00869493    -0.82200
O357        O  0.45332004  0.92967762  0.00733366    -0.84800
C358        C  0.46872375  0.93948819  0.00539080     1.02900
O359        O  0.48395694  0.93198370  0.99006893    -0.77600
O360        O  0.49191079  0.90726897  0.06074773    -0.77800
C361        C  0.48952731  0.89250887  0.08515455     1.02800
O362        O  0.48713402  0.85977510  0.97569120    -0.85100
O363        O  0.44813388  0.86103159  0.96961676    -0.82200
C364        C  0.44270599  0.86761600  0.93170028     0.98400
O365        O  0.44448193  0.88524552  0.92232652    -0.82200
O366        O  0.46665682  0.91783533  0.91747665    -0.84800
C367        C  0.48163123  0.90988105  0.90094695     1.02900
O368        O  0.49414569  0.90235744  0.92666596    -0.77600
O369        O  0.50853016  0.88083930  0.99767753    -0.77800
C370        C  0.50445836  0.86504749  0.97855221     1.02800
Cr371      Cr  0.46686045  0.87086274  0.01597962     1.93700
Cr372      Cr  0.44996122  0.90645849  0.96650959     1.93200
Cr373      Cr  0.49288936  0.90489947  0.99363279     1.39100
O374        O  0.46959356  0.89408301  0.99246901    -1.22900
O375        O  0.47568368  0.11206610  0.94895148    -0.85100
O376        O  0.49328961  0.07954484  0.97745408    -0.82100
C377        C  0.50432522  0.06810515  0.99749537     0.98400
O378        O  0.51741129  0.07467446  0.02354684    -0.82200
O379        O  0.53958076  0.10444981  0.97986313    -0.84800
C380        C  0.54417104  0.12112950  0.96627772     1.02900
O381        O  0.53471842  0.13579597  0.97940964    -0.77600
O382        O  0.50108323  0.13006078  0.93320463    -0.77800
C383        C  0.48663661  0.12039916  0.92030534     1.02800
O384        O  0.46872056  0.12148269  0.04602175    -0.85100
O385        O  0.48493995  0.08868547  0.07301523    -0.82200
C386        C  0.49677420  0.09206139  0.10535461     0.98400
O387        O  0.51298755  0.09972269  0.09835259    -0.82200
O388        O  0.53705046  0.12690546  0.06406099    -0.84800
C389        C  0.52840082  0.14220729  0.07689912     1.02900
O390        O  0.51273629  0.14710751  0.05838550    -0.77600
O391        O  0.47899834  0.14600775  0.00698261    -0.77800
C392        C  0.46730053  0.13882181  0.03505835     1.02800
Cr393      Cr  0.48230086  0.10142703  0.01139691     1.93700
Cr394      Cr  0.52531963  0.10223780  0.03877867     1.93200
Cr395      Cr  0.50665003  0.13787934  0.99613963     1.39100
O396        O  0.50464424  0.11372112  0.01537167    -1.22900
O397        O  0.13793883  0.75907458  0.33631141    -0.85100
O398        O  0.16229304  0.75409622  0.26291476    -0.82100
C399        C  0.17176884  0.73924762  0.27297721     0.98400
O400        O  0.16331664  0.72301335  0.27563674    -0.82200
O401        O  0.13138850  0.69656280  0.28173402    -0.84800
C402        C  0.12275462  0.69681560  0.31993153     1.02900
O403        O  0.11446174  0.71185289  0.33429716    -0.77600
O404        O  0.10770595  0.75015136  0.34610751    -0.77800
C405        C  0.12382911  0.75557856  0.36224546     1.02800
O406        O  0.10917258  0.77373320  0.27681843    -0.85100
O407        O  0.13141278  0.76247126  0.20251247    -0.82200
C408        C  0.14048022  0.75132665  0.17565705     0.98400
O409        O  0.14830564  0.73595102  0.18989820    -0.82200
O410        O  0.11715456  0.71181414  0.19748407    -0.84800
C411        C  0.09993916  0.70849825  0.20912354     1.02900
O412        O  0.09412572  0.71213650  0.24900301    -0.77600
O413        O  0.08944097  0.75082943  0.25626539    -0.77800
C414        C  0.09345904  0.76848954  0.25912076     1.02800
Cr415      Cr  0.13454159  0.76052444  0.26953986     1.93700
Cr416      Cr  0.13905381  0.71816316  0.23901811     1.93200
Cr417      Cr  0.10320189  0.73164573  0.29438162     1.39100
O418        O  0.12569660  0.73650090  0.26793370    -1.22900
O419        O  0.36282144  0.75254574  0.17570149    -0.85100
O420        O  0.35998552  0.79115844  0.18714650    -0.82100
C421        C  0.35324523  0.80672094  0.20283623     0.98400
O422        O  0.34565425  0.80752351  0.24212545    -0.82200
O423        O  0.31294657  0.78269736  0.25648102    -0.84800
C424        C  0.30395399  0.76695687  0.26273082     1.02900
O425        O  0.31309388  0.75217463  0.27461399    -0.77600
O426        O  0.33282278  0.74532854  0.19433863    -0.77800
C427        C  0.34556375  0.74850384  0.16440260     1.02800
O428        O  0.38553684  0.75064513  0.26064762    -0.85100
O429        O  0.38375008  0.78996700  0.26745512    -0.82200
C430        C  0.37937956  0.79521795  0.30750569     0.98400
O431        O  0.36254861  0.79278406  0.32298638    -0.82200
O432        O  0.33113117  0.77017418  0.33988295    -0.84800
C433        C  0.33982236  0.75522044  0.35372337     1.02900
O434        O  0.34663094  0.74295992  0.32565592    -0.77600
O435        O  0.36352988  0.72930585  0.24515836    -0.77800
C436        C  0.38014480  0.73330521  0.25955286     1.02800
Cr437      Cr  0.37141931  0.77075450  0.22518753     1.93700
Cr438      Cr  0.33877139  0.78688286  0.28746395     1.93200
Cr439      Cr  0.33977412  0.74413397  0.25982164     1.39100
O440        O  0.34995755  0.76758836  0.25714244    -1.22900
O441        O  0.98475511  0.60656766  0.46341040    -0.85100
O442        O  0.00321274  0.57574541  0.49802760    -0.82100
C443        C  0.01324989  0.56488438  0.52212168     0.98400
O444        O  0.02508138  0.57223382  0.55028901    -0.82200
O445        O  0.04816841  0.60111132  0.50483723    -0.84800
C446        C  0.05281354  0.61757030  0.48983180     1.02900
O447        O  0.04238984  0.63219682  0.49819013    -0.77600
O448        O  0.00989614  0.62512325  0.44923783    -0.77800
C449        C  0.99590475  0.61501238  0.43564965     1.02800
O450        O  0.97401059  0.61769415  0.55552001    -0.85100
O451        O  0.99143218  0.58658887  0.59098229    -0.82200
C452        C  0.00199225  0.59168494  0.62454694     0.98400
O453        O  0.01814221  0.59968275  0.61910567    -0.82200
O454        O  0.04320942  0.62583184  0.58406746    -0.84800
C455        C  0.03444243  0.64154226  0.59277280     1.02900
O456        O  0.01888816  0.64549819  0.57265927    -0.77600
O457        O  0.98622030  0.64218417  0.51887225    -0.77800
C458        C  0.97290003  0.63481813  0.54243811     1.02800
Cr459      Cr  0.99009220  0.59762125  0.52737525     1.93700
Cr460      Cr  0.03220621  0.60038895  0.56162884     1.93200
Cr461      Cr  0.01406862  0.63441553  0.51154702     1.39100
O462        O  0.01193102  0.61081023  0.53365836    -1.22900
O463        O  0.97415024  0.37858263  0.60505549    -0.85100
O464        O  0.94077150  0.36944323  0.56083701    -0.82100
C465        C  0.93065568  0.38366301  0.57351409     0.98400
O466        O  0.93490171  0.40050877  0.56044756    -0.82200
O467        O  0.95526809  0.43086187  0.51416714    -0.84800
C468        C  0.96899224  0.43811644  0.53735713     1.02900
O469        O  0.98192843  0.42750045  0.55316797    -0.77600
O470        O  0.99953223  0.39578311  0.58485019    -0.77800
C471        C  0.98847707  0.38893079  0.61556823     1.02800
O472        O  0.99681468  0.36105180  0.53423185    -0.85100
O473        O  0.96249063  0.35780513  0.48315507    -0.82200
C474        C  0.94643298  0.36207377  0.46534307     0.98400
O475        O  0.93754467  0.37745171  0.47693650    -0.82200
O476        O  0.95899735  0.40542830  0.43877809    -0.84800
C477        C  0.97524803  0.41204622  0.42779031     1.02900
O478        O  0.98817852  0.41566864  0.45763791    -0.77600
O479        O  0.00518681  0.38372671  0.48775355    -0.77800
C480        C  0.00767818  0.36713573  0.50301819     1.02800
Cr481      Cr  0.96878334  0.36855295  0.54393814     1.93700
Cr482      Cr  0.94826482  0.40288688  0.50008984     1.93200
Cr483      Cr  0.99206654  0.40470616  0.52103202     1.39100
O484        O  0.96977176  0.39227124  0.52152781    -1.22900
O485        O  0.86744362  0.26885096  0.72041120    -0.85100
O486        O  0.87155516  0.30192132  0.76971947    -0.82100
C487        C  0.85671035  0.31082844  0.75632190     0.98400
O488        O  0.84004382  0.30554968  0.76898390    -0.82200
O489        O  0.81055529  0.28215338  0.81049545    -0.84800
C490        C  0.80457349  0.26954059  0.78230511     1.02900
O491        O  0.81647469  0.25869986  0.76280017    -0.77600
O492        O  0.84954598  0.24298525  0.73208358    -0.77800
C493        C  0.85776601  0.25474931  0.70527467     1.02800
O494        O  0.88376484  0.24686819  0.79335959    -0.85100
O495        O  0.88302716  0.27968543  0.84738439    -0.82200
C496        C  0.87786912  0.29547090  0.86529874     0.98400
O497        O  0.86205454  0.30328114  0.85334181    -0.82200
O498        O  0.83546740  0.27749530  0.88521067    -0.84800
C499        C  0.82884655  0.26074411  0.89086418     1.02900
O500        O  0.82613431  0.24906382  0.85761428    -0.77600
O501        O  0.85909343  0.23331039  0.82655789    -0.77800
C502        C  0.87669341  0.23349967  0.81690693     1.02800
Cr503      Cr  0.87453997  0.27391241  0.78426699     1.93700
Cr504      Cr  0.83790505  0.29064207  0.82690320     1.93200
Cr505      Cr  0.83873575  0.24784818  0.79527713     1.39100
O506        O  0.85032509  0.27057893  0.80233481    -1.22900
O507        O  0.62990045  0.26301848  0.80901951    -0.85100
O508        O  0.66255001  0.24533288  0.78202742    -0.82100
C509        C  0.67414468  0.23357455  0.76448300     0.98400
O510        O  0.66793812  0.22069405  0.73702768    -0.82200
O511        O  0.63723903  0.19858150  0.77801593    -0.84800
C512        C  0.62021796  0.19400061  0.78955473     1.02900
O513        O  0.60598946  0.20413806  0.77713861    -0.77600
O514        O  0.61215987  0.23742781  0.82402816    -0.77800
C515        C  0.62192861  0.25168899  0.83740212     1.02800
O516        O  0.62147315  0.26951237  0.71071949    -0.85100
O517        O  0.65438558  0.25320615  0.68542361    -0.82200
C518        C  0.65053425  0.24152883  0.65287213     0.98400
O519        O  0.64334875  0.22516973  0.66016334    -0.82200
O520        O  0.61563755  0.20154233  0.69320544    -0.84800
C521        C  0.60021541  0.21015956  0.68135881     1.02900
O522        O  0.59571928  0.22617991  0.69910204    -0.77600
O523        O  0.59681590  0.26003948  0.75051298    -0.77800
C524        C  0.60404101  0.27110763  0.72111712     1.02800
Cr525      Cr  0.64112905  0.25614932  0.74675074     1.93700
Cr526      Cr  0.64033973  0.21299025  0.71959552     1.93200
Cr527      Cr  0.60451316  0.23220520  0.76124883     1.39100
O528        O  0.62882105  0.23383161  0.74267045    -1.22900
O529        O  0.98954455  0.62985998  0.94485817    -0.85100
O530        O  0.95093756  0.62409808  0.95284342    -0.82100
C531        C  0.93532207  0.61728032  0.96762007     0.98400
O532        O  0.93457257  0.60940465  0.00647623    -0.82200
O533        O  0.96090739  0.57752488  0.01844365    -0.84800
C534        C  0.97710179  0.56926004  0.02405884     1.02900
O535        O  0.99146658  0.57880018  0.03785400    -0.77600
O536        O  0.99850777  0.60027447  0.96177798    -0.77800
C537        C  0.99509085  0.61314572  0.93269705     1.02800
O538        O  0.98887529  0.65127774  0.03221027    -0.85100
O539        O  0.95002954  0.64683319  0.03494249    -0.82200
C540        C  0.94540423  0.64217955  0.07497877     0.98400
O541        O  0.94853305  0.62543876  0.08980118    -0.82200
O542        O  0.97209679  0.59455996  0.10471561    -0.84800
C543        C  0.98684618  0.60328144  0.12036118     1.02900
O544        O  0.99868378  0.61152166  0.09403829    -0.77600
O545        O  0.01203747  0.63108518  0.01776759    -0.77800
C546        C  0.00655177  0.64717316  0.03295185     1.02800
Cr547      Cr  0.97026187  0.63641218  0.99344606     1.93700
Cr548      Cr  0.95541750  0.60249498  0.05209833     1.93200
Cr549      Cr  0.99841410  0.60610000  0.02766608     1.39100
O550        O  0.97441991  0.61492299  0.02402619    -1.22900
O551        O  0.98271166  0.39806468  0.08558365    -0.85100
O552        O  0.00036952  0.42906380  0.05078897    -0.82100
C553        C  0.01291901  0.43964210  0.03338073     0.98400
O554        O  0.02662544  0.43229434  0.01037154    -0.82200
O555        O  0.04793558  0.40287153  0.05705879    -0.84800
C556        C  0.05242407  0.38625553  0.07094392     1.02900
O557        O  0.04163916  0.37199799  0.06201577    -0.77600
O558        O  0.00851914  0.38183317  0.10680732    -0.77800
C559        C  0.99402271  0.39203167  0.11669507     1.02800
O560        O  0.97606574  0.38477063  0.99073507    -0.85100
O561        O  0.99313348  0.41599543  0.95656100    -0.82200
C562        C  0.00574822  0.41187427  0.92645186     0.98400
O563        O  0.02213877  0.40561379  0.93714699    -0.82200
O564        O  0.04403101  0.37831064  0.97582269    -0.84800
C565        C  0.03495045  0.36271240  0.96661891     1.02900
O566        O  0.01941696  0.35860987  0.98686850    -0.77600
O567        O  0.98575537  0.36258081  0.03736578    -0.77800
C568        C  0.97401699  0.36839167  0.00754211     1.02800
Cr569      Cr  0.98984515  0.40604272  0.02099868     1.93700
Cr570      Cr  0.03356704  0.40412203  0.99783027     1.93200
Cr571      Cr  0.01359101  0.37056943  0.04641991     1.39100
O572        O  0.01226048  0.39374052  0.02144424    -1.22900
O573        O  0.86762842  0.73320136  0.83083589    -0.85100
O574        O  0.87116226  0.69954580  0.78371451    -0.82100
C575        C  0.85651300  0.68992025  0.79576591     0.98400
O576        O  0.83968140  0.69496792  0.78328269    -0.82200
O577        O  0.81030572  0.71878847  0.74022609    -0.84800
C578        C  0.80412098  0.73148250  0.76787633     1.02900
O579        O  0.81593551  0.74215863  0.78838021    -0.77600
O580        O  0.84917391  0.75855153  0.81797384    -0.77800
C581        C  0.85786121  0.74733570  0.84520236     1.02800
O582        O  0.88348875  0.75415046  0.75497505    -0.85100
O583        O  0.88228907  0.72077416  0.70408792    -0.82200
C584        C  0.87697106  0.70497667  0.68646496     0.98400
O585        O  0.86149497  0.69698680  0.69966778    -0.82200
O586        O  0.83588075  0.72308068  0.66646039    -0.84800
C587        C  0.82969021  0.73993394  0.66014916     1.02900
O588        O  0.82567836  0.75127064  0.69321311    -0.77600
O589        O  0.85832905  0.76754465  0.72340150    -0.77800
C590        C  0.87609806  0.76726149  0.73113115     1.02800
Cr591      Cr  0.87422630  0.72728587  0.76703305     1.93700
Cr592      Cr  0.83759755  0.70999509  0.72514490     1.93200
Cr593      Cr  0.83820177  0.75300208  0.75547753     1.39100
O594        O  0.84992346  0.73025969  0.74947103    -1.22900
O595        O  0.63178424  0.74092738  0.70827999    -0.85100
O596        O  0.66386436  0.75681405  0.74592311    -0.82100
C597        C  0.67454835  0.77005077  0.76118716     0.98400
O598        O  0.66735356  0.78453225  0.78197797    -0.82200
O599        O  0.63923826  0.80678202  0.73279577    -0.84800
C600        C  0.62294505  0.81172759  0.71723472     1.02900
O601        O  0.60826894  0.80151534  0.72499135    -0.77600
O602        O  0.61833004  0.76761896  0.68283548    -0.77800
C603        C  0.62749208  0.75220501  0.67557614     1.02800
O604        O  0.61616566  0.73815735  0.80316134    -0.85100
O605        O  0.64900468  0.75259348  0.83808602    -0.82200
C606        C  0.64589196  0.76612512  0.86669616     0.98400
O607        O  0.64015527  0.78241264  0.85413421    -0.82200
O608        O  0.61386368  0.80439232  0.81199207    -0.84800
C609        C  0.59777739  0.79601457  0.81933172     1.02900
O610        O  0.59324762  0.78054813  0.79863285    -0.77600
O611        O  0.59692414  0.74624894  0.74834669    -0.77800
C612        C  0.60027896  0.73639676  0.78324351     1.02800
Cr613      Cr  0.63931991  0.74877478  0.77337717     1.93700
Cr614      Cr  0.63948569  0.79291160  0.79258123     1.93200
Cr615      Cr  0.60594995  0.77372759  0.74079960     1.39100
O616        O  0.62858790  0.77183518  0.76894623    -1.22900
O617        O  0.48903063  0.12553509  0.42792358    -0.85100
O618        O  0.44999014  0.12402843  0.43600555    -0.82100
C619        C  0.43398412  0.11829031  0.45097386     0.98400
O620        O  0.43297683  0.10937182  0.48852881    -0.82200
O621        O  0.45757719  0.07555035  0.50105362    -0.84800
C622        C  0.47310169  0.06635735  0.50922483     1.02900
O623        O  0.48750928  0.07535903  0.52455895    -0.77600
O624        O  0.49577714  0.09538190  0.44557162    -0.77800
C625        C  0.49269554  0.10824270  0.41601505     1.02800
O626        O  0.49062585  0.14748310  0.51449960    -0.85100
O627        O  0.45160675  0.14643179  0.51870202    -0.82200
C628        C  0.44591103  0.14170155  0.55796043     0.98400
O629        O  0.44727220  0.12454597  0.57177987    -0.82200
O630        O  0.46909978  0.09271911  0.58830785    -0.84800
C631        C  0.48374302  0.10149483  0.60455506     1.02900
O632        O  0.49651242  0.10836099  0.57818080    -0.77600
O633        O  0.51188883  0.12541236  0.49993392    -0.77800
C634        C  0.50787732  0.14192654  0.51498364     1.02800
Cr635      Cr  0.47060644  0.13420729  0.47649579     1.93700
Cr636      Cr  0.45316514  0.10113234  0.53452783     1.93200
Cr637      Cr  0.49626933  0.10189958  0.51172654     1.39100
O638        O  0.47300420  0.11241513  0.50712016    -1.22900
O639        O  0.48020994  0.90108140  0.55987294    -0.85100
O640        O  0.48683233  0.92333222  0.48380438    -0.82100
C641        C  0.50104630  0.93343628  0.49644988     0.98400
O642        O  0.51736458  0.92548676  0.50334823    -0.82200
O643        O  0.54446514  0.89409106  0.51593404    -0.84800
C644        C  0.54373731  0.88645766  0.55513690     1.02900
O645        O  0.52814260  0.87950587  0.56992360    -0.77600
O646        O  0.48958333  0.87144987  0.57485837    -0.77800
C647        C  0.48345932  0.88780917  0.58813574     1.02800
O648        O  0.46838697  0.86993381  0.50236891    -0.85100
O649        O  0.48099965  0.89033138  0.42694477    -0.82200
C650        C  0.49268100  0.89906415  0.40117997     0.98400
O651        O  0.50693766  0.90830573  0.41743914    -0.82200
O652        O  0.53093104  0.87753399  0.43150896    -0.84800
C653        C  0.53573206  0.86144472  0.44789165     1.02900
O654        O  0.53160452  0.85730269  0.48851187    -0.77600
O655        O  0.49251922  0.85113090  0.48626841    -0.77800
C656        C  0.47468012  0.85459870  0.48471201     1.02800
Cr657      Cr  0.48080634  0.89563462  0.49355124     1.93700
Cr658      Cr  0.52366308  0.90057057  0.46972717     1.93200
Cr659      Cr  0.50993257  0.86633286  0.52777495     1.39100
O660        O  0.50506759  0.88773369  0.49767279    -1.22900
O661        O  0.14053253  0.24380571  0.22242726    -0.85100
O662        O  0.16441907  0.25098604  0.29551795    -0.82100
C663        C  0.17311739  0.26601858  0.28296728     0.98400
O664        O  0.16412995  0.28192888  0.28022399    -0.82200
O665        O  0.13160024  0.30710817  0.27505863    -0.84800
C666        C  0.12413270  0.30619545  0.23554852     1.02900
O667        O  0.11730614  0.29054086  0.22033528    -0.77600
O668        O  0.11021538  0.25196889  0.21177222    -0.77800
C669        C  0.12647838  0.24685308  0.19598524     1.02800
O670        O  0.11159359  0.22958261  0.28308123    -0.85100
O671        O  0.13367756  0.24229884  0.35651647    -0.82200
C672        C  0.14261081  0.25395245  0.38247069     0.98400
O673        O  0.15052890  0.26896488  0.36683368    -0.82200
O674        O  0.11779731  0.29132677  0.35951025    -0.84800
C675        C  0.10138231  0.29614542  0.34467592     1.02900
O676        O  0.09647974  0.29216467  0.30412943    -0.77600
O677        O  0.09157640  0.25267587  0.30105691    -0.77800
C678        C  0.09564733  0.23495450  0.29952237     1.02800
Cr679      Cr  0.13690447  0.24332543  0.28941710     1.93700
Cr680      Cr  0.14015293  0.28599389  0.31789227     1.93200
Cr681      Cr  0.10545588  0.27142255  0.26141481     1.39100
O682        O  0.12760389  0.26710320  0.28923527    -1.22900
O683        O  0.37101072  0.25530615  0.32185128    -0.85100
O684        O  0.36174131  0.21707656  0.31517981    -0.82100
C685        C  0.35468908  0.20153137  0.30006391     0.98400
O686        O  0.34586825  0.20119557  0.26191417    -0.82200
O687        O  0.31437151  0.22834038  0.25969665    -0.84800
C688        C  0.30605865  0.24459623  0.25657063     1.02900
O689        O  0.31540214  0.25923902  0.24378489    -0.77600
O690        O  0.34091460  0.26472119  0.31465486    -0.77800
C691        C  0.35517183  0.26056531  0.33960679     1.02800
O692        O  0.38765809  0.25305026  0.23081721    -0.85100
O693        O  0.38057680  0.21409497  0.22891641    -0.82200
C694        C  0.37455863  0.21078082  0.18893264     0.98400
O695        O  0.35827055  0.21666040  0.17607433    -0.82200
O696        O  0.32716357  0.24060783  0.17142824    -0.84800
C697        C  0.33627741  0.25472080  0.15454073     1.02900
O698        O  0.34585720  0.26609853  0.17992548    -0.77600
O699        O  0.36982445  0.27758024  0.25101423    -0.77800
C700        C  0.38484848  0.27099792  0.23221006     1.02800
Cr701      Cr  0.37372873  0.23539766  0.27242382     1.93700
Cr702      Cr  0.33728925  0.22292447  0.21983423     1.93200
Cr703      Cr  0.34350713  0.26532683  0.24737932     1.39100
O704        O  0.35137710  0.24102967  0.24696514    -1.22900
C705        C  0.25856630  0.26166626  0.26582325     0.30000
C706        C  0.24395578  0.27580020  0.26485356    -0.36300
C707        C  0.22487536  0.26900948  0.26789061     0.16000
C708        C  0.22065422  0.24962304  0.27160283     0.21800
C709        C  0.23523337  0.23551320  0.27247661    -0.34400
C710        C  0.25427650  0.24229893  0.26961541     0.15900
O711        O  0.27727453  0.26479248  0.26237503    -0.26500
C712        C  0.28516863  0.24725666  0.26422660     0.05700
C713        C  0.27152765  0.23263459  0.26885284    -0.31300
O714        O  0.20202494  0.24640735  0.27568170    -0.23200
C715        C  0.19400924  0.26387937  0.27450627    -0.03200
C716        C  0.20753918  0.27861072  0.26947949    -0.17600
H717        H  0.24726112  0.29101655  0.26202371     0.20400
H718        H  0.23193079  0.22030287  0.27551922     0.18800
H719        H  0.27390671  0.21720089  0.26979027     0.18700
H720        H  0.20506404  0.29403264  0.26895816     0.14600
C721        C  0.37183333  0.16671156  0.37598140     0.30000
C722        C  0.37887009  0.16034202  0.41829392    -0.36300
C723        C  0.39225238  0.14505492  0.41697759     0.16000
C724        C  0.39881522  0.13696252  0.37671483     0.21800
C725        C  0.39123878  0.14287187  0.33444175    -0.34400
C726        C  0.37738690  0.15778528  0.33582938     0.15900
O727        O  0.36157099  0.18254066  0.36897663    -0.26500
C728        C  0.35983390  0.18345393  0.32372943     0.05700
C729        C  0.36927990  0.16828183  0.30148727    -0.31300
O730        O  0.41370583  0.12522538  0.38307217    -0.23200
C731        C  0.41616701  0.12513036  0.42824368    -0.03200
C732        C  0.40315661  0.13719942  0.45086215    -0.17600
H733        H  0.37505623  0.16756207  0.44991968     0.20400
H734        H  0.39659647  0.13704239  0.30248734     0.18800
H735        H  0.37192810  0.16669850  0.26524212     0.18700
H736        H  0.40323745  0.14128973  0.48660272     0.14600
C737        C  0.48197918  0.98057082  0.49444141     0.30000
C738        C  0.46747182  0.99456286  0.48709288    -0.36300
C739        C  0.47282377  0.01397786  0.49444937     0.16000
C740        C  0.49123867  0.01900076  0.50802573     0.21800
C741        C  0.50570722  0.00505941  0.51522788    -0.34400
C742        C  0.50036755  0.98571782  0.50796054     0.15900
O743        O  0.48010146  0.96171302  0.48948958    -0.26500
C744        C  0.49746752  0.95454067  0.49991939     0.05700
C745        C  0.51073265  0.96888220  0.51172551    -0.31300
O746        O  0.49323231  0.03774388  0.51382298    -0.23200
C747        C  0.47595177  0.04517580  0.50397996    -0.03200
C748        C  0.46254018  0.03099926  0.49146613    -0.17600
H749        H  0.45301089  0.99055313  0.47654062     0.20400
H750        H  0.52014143  0.00906188  0.52600655     0.18800
H751        H  0.52574872  0.96719586  0.52121371     0.18700
H752        H  0.44750304  0.03287449  0.48239047     0.14600
C753        C  0.60931909  0.84751145  0.64145429     0.30000
C754        C  0.60367691  0.85392107  0.59800944    -0.36300
C755        C  0.58817176  0.86707200  0.59673444     0.16000
C756        C  0.57859979  0.87320281  0.63551655     0.21800
C757        C  0.58471262  0.86739931  0.67894673    -0.34400
C758        C  0.60038036  0.85452928  0.68024370     0.15900
O759        O  0.62072313  0.83259995  0.65001187    -0.26500
C760        C  0.61951729  0.83039554  0.69505597     0.05700
C761        C  0.60711987  0.84375718  0.71535326    -0.31300
O762        O  0.56229621  0.88232141  0.62620810    -0.23200
C763        C  0.56168786  0.88269424  0.58081683    -0.03200
C764        C  0.57751143  0.87352794  0.56076689    -0.17600
H765        H  0.60987748  0.84788337  0.56714186     0.20400
H766        H  0.57679036  0.87137425  0.70942786     0.18800
H767        H  0.60162737  0.84360349  0.74992354     0.18700
H768        H  0.57949200  0.86992447  0.52505150     0.14600
C769        C  0.75462520  0.74008586  0.74977998     0.30000
C770        C  0.73730543  0.73995226  0.72470915    -0.36300
C771        C  0.72248759  0.75205115  0.74095709     0.16000
C772        C  0.72442474  0.76355839  0.77935687     0.21800
C773        C  0.74182769  0.76374729  0.80445451    -0.34400
C774        C  0.75670751  0.75160795  0.78812864     0.15900
O775        O  0.77055843  0.73044080  0.73946600    -0.26500
C776        C  0.78315893  0.73574433  0.77165499     0.05700
C777        C  0.77526487  0.74891416  0.80287453    -0.31300
O778        O  0.70820312  0.77279201  0.78984534    -0.23200
C779        C  0.69573003  0.76716762  0.75753337    -0.03200
C780        C  0.70395299  0.75429572  0.72629229    -0.17600
H781        H  0.73547764  0.73097251  0.69457995     0.20400
H782        H  0.74360254  0.77261507  0.83478280     0.18800
H783        H  0.78250109  0.75626416  0.83083914     0.18700
H784        H  0.69686693  0.74664813  0.69854557     0.14600
C785        C  0.11227535  0.34005530  0.15277107     0.30000
C786        C  0.10592726  0.34529285  0.10924811    -0.36300
C787        C  0.09441886  0.36189172  0.10691945     0.16000
C788        C  0.08924871  0.37265076  0.14486278     0.21800
C789        C  0.09638953  0.36789749  0.18834114    -0.34400
C790        C  0.10807775  0.35128298  0.19065312     0.15900
O791        O  0.11990605  0.32323983  0.16342345    -0.26500
C792        C  0.12119776  0.32380139  0.20867370     0.05700
C793        C  0.11424748  0.34100723  0.22746060    -0.31300
O794        O  0.07491073  0.38477656  0.13619787    -0.23200
C795        C  0.07123696  0.38201085  0.09194337    -0.03200
C796        C  0.08310832  0.36808245  0.07222600    -0.17600
H797        H  0.10826665  0.33604284  0.07978013     0.20400
H798        H  0.09170767  0.37552460  0.21875813     0.18800
H799        H  0.11175322  0.34431628  0.26313182     0.18700
H800        H  0.08154339  0.36141092  0.03883291     0.14600
C801        C  0.90118340  0.63020110  0.88541180     0.30000
C802        C  0.89542910  0.63542441  0.84131040    -0.36300
C803        C  0.87985498  0.64833976  0.83834416     0.16000
C804        C  0.87067498  0.65597832  0.87614669     0.21800
C805        C  0.87606769  0.65027274  0.92038925    -0.34400
C806        C  0.89146819  0.63701876  0.92335129     0.15900
O807        O  0.91720601  0.62086420  0.89598060    -0.26500
C808        C  0.91751834  0.62104229  0.94139567     0.05700
C809        C  0.90177010  0.63080824  0.96021813    -0.31300
O810        O  0.85907070  0.67053125  0.86567497    -0.23200
C811        C  0.86045189  0.67187468  0.82040937    -0.03200
C812        C  0.87315950  0.65833684  0.80193432    -0.17600
H813        H  0.90345263  0.63084492  0.81143988     0.20400
H814        H  0.86964665  0.65674403  0.95049348     0.18800
H815        H  0.89960839  0.63485356  0.99560363     0.18700
H816        H  0.87869581  0.65777832  0.76740265     0.14600
C817        C  0.99215274  0.48558614  0.03909112     0.30000
C818        C  0.97648745  0.49843816  0.04327362    -0.36300
C819        C  0.97987641  0.51750986  0.02957372     0.16000
C820        C  0.99763483  0.52346675  0.01373839     0.21800
C821        C  0.01325576  0.51057434  0.00918274    -0.34400
C822        C  0.00977125  0.49143160  0.02220144     0.15900
O823        O  0.99177308  0.46699704  0.04786889    -0.26500
C824        C  0.00927696  0.46063083  0.03614558     0.05700
C825        C  0.02119386  0.47525948  0.01994932    -0.31300
O826        O  0.99819165  0.54218681  0.00657340    -0.23200
C827        C  0.98049987  0.54842143  0.01707743    -0.03200
C828        C  0.96835817  0.53362367  0.03136515    -0.17600
H829        H  0.96260364  0.49384325  0.05622515     0.20400
H830        H  0.02718666  0.51520084  0.99657787     0.18800
H831        H  0.03567314  0.47399899  0.00635190     0.18700
H832        H  0.95388369  0.53482915  0.04501917     0.14600
C833        C  0.57373975  0.18006383  0.60760743     0.30000
C834        C  0.56965216  0.16330788  0.58214972    -0.36300
C835        C  0.55097467  0.16206691  0.56372014     0.16000
C836        C  0.53718044  0.17623257  0.57006874     0.21800
C837        C  0.54133603  0.19307600  0.59514316    -0.34400
C838        C  0.56004713  0.19436949  0.61335170     0.15900
O839        O  0.58993338  0.18382894  0.62981625    -0.26500
C840        C  0.58659039  0.20085042  0.64966595     0.05700
C841        C  0.56826046  0.20809436  0.64053564    -0.31300
O842        O  0.52026129  0.17143787  0.55241845    -0.23200
C843        C  0.52334177  0.15404278  0.53423988    -0.03200
C844        C  0.54220043  0.14755034  0.54007444    -0.17600
H845        H  0.58012156  0.15183843  0.57795772     0.20400
H846        H  0.53059555  0.20416237  0.60103430     0.18800
H847        H  0.56170400  0.22122771  0.65349549     0.18700
H848        H  0.54827059  0.13372112  0.53029556     0.14600
C849        C  0.90586127  0.32904327  0.92658848     0.30000
C850        C  0.91220971  0.34763258  0.93875561    -0.36300
C851        C  0.93014506  0.34874600  0.96095009     0.16000
C852        C  0.94104165  0.33269372  0.97135153     0.21800
C853        C  0.93470024  0.31405212  0.95901958    -0.34400
C854        C  0.91684734  0.31294702  0.93609763     0.15900
O855        O  0.89023053  0.32486872  0.90259630    -0.26500
C856        C  0.89120572  0.30584620  0.89623787     0.05700
C857        C  0.90746503  0.29764624  0.91637836    -0.31300
O858        O  0.95774477  0.33725717  0.99074579    -0.23200
C859        C  0.95753686  0.35648631  0.99229350    -0.03200
C860        C  0.94075857  0.36435725  0.97408992    -0.17600
H861        H  0.90404797  0.36039982  0.93008133     0.20400
H862        H  0.94336260  0.30137007  0.96547811     0.18800
H863        H  0.91214026  0.28274328  0.91480659     0.18700
H864        H  0.93714964  0.37945186  0.97009966     0.14600
C865        C  0.75404548  0.26341443  0.78959923     0.30000
C866        C  0.73550141  0.26540321  0.80867456    -0.36300
C867        C  0.72121848  0.25261620  0.79213643     0.16000
C868        C  0.72477658  0.23884279  0.75889080     0.21800
C869        C  0.74332780  0.23684811  0.73983771    -0.34400
C870        C  0.75761585  0.24963268  0.75638057     0.15900
O871        O  0.76978442  0.27320691  0.80149070    -0.26500
C872        C  0.78365666  0.26570160  0.77523246     0.05700
C873        C  0.77679944  0.25102711  0.74647551    -0.31300
O874        O  0.70898502  0.22920780  0.74661977    -0.23200
C875        C  0.69509205  0.23680818  0.77266053    -0.03200
C876        C  0.70200365  0.25136644  0.80169782    -0.17600
H877        H  0.73240780  0.27616077  0.83467877     0.20400
H878        H  0.74639962  0.22615168  0.71368144     0.18800
H879        H  0.78503187  0.24191045  0.72345134     0.18700
H880        H  0.69376699  0.26061267  0.82443042     0.14600
C881        C  0.97845808  0.40614687  0.22672582     0.30000
C882        C  0.96549663  0.41186852  0.26119286    -0.36300
C883        C  0.97318285  0.41333737  0.30559721     0.16000
C884        C  0.99232973  0.40966411  0.31551214     0.21800
C885        C  0.00524747  0.40393010  0.28112026    -0.34400
C886        C  0.99751424  0.40219753  0.23695069     0.15900
O887        O  0.97435862  0.40324147  0.18298316    -0.26500
C888        C  0.99100187  0.39708095  0.16527135     0.05700
C889        C  0.00581846  0.39616466  0.19737667    -0.31300
O890        O  0.99605017  0.41034497  0.35978029    -0.23200
C891        C  0.97904617  0.41446003  0.37864990    -0.03200
C892        C  0.96433907  0.41650820  0.34645842    -0.17600
H893        H  0.95037088  0.41441188  0.25417094     0.20400
H894        H  0.02013849  0.40037866  0.28853734     0.18800
H895        H  0.02065956  0.39173573  0.19215054     0.18700
H896        H  0.94905797  0.41855942  0.35259035     0.14600
C897        C  0.00296655  0.40368881  0.72594122     0.30000
C898        C  0.01491381  0.41175504  0.75995840    -0.36300
C899        C  0.00732152  0.41205702  0.80447329     0.16000
C900        C  0.98918751  0.40505957  0.81491260     0.21800
C901        C  0.97734696  0.39683121  0.78104717    -0.34400
C902        C  0.98499832  0.39637466  0.73672451     0.15900
O903        O  0.00702673  0.40194833  0.68191302    -0.26500
C904        C  0.99150325  0.39316094  0.66453972     0.05700
C905        C  0.97743117  0.38933814  0.69720630    -0.31300
O906        O  0.98547815  0.40569233  0.85912996    -0.23200
C907        C  0.00144975  0.41319859  0.87740932    -0.03200
C908        C  0.01552921  0.41734793  0.84494874    -0.17600
H909        H  0.02922157  0.41713718  0.75242112     0.20400
H910        H  0.96330002  0.39083341  0.78885136     0.18800
H911        H  0.96339307  0.38269941  0.69226297     0.18700
H912        H  0.03018696  0.42225402  0.85075718     0.14600
C913        C  0.07072476  0.31783072  0.42666346     0.30000
C914        C  0.06131924  0.32081350  0.46895669    -0.36300
C915        C  0.04640209  0.33475453  0.46948304     0.16000
C916        C  0.04157387  0.34518382  0.43124638     0.21800
C917        C  0.05071588  0.34206826  0.38938703    -0.34400
C918        C  0.06515950  0.32802623  0.38866225     0.15900
O919        O  0.08478338  0.30536199  0.41731236    -0.26500
C920        C  0.08786323  0.30764273  0.37268541     0.05700
C921        C  0.07598311  0.32144950  0.35338776    -0.37700
O922        O  0.02761856  0.35765272  0.43868276    -0.23200
C923        C  0.02292705  0.35515652  0.48209930    -0.03200
C924        C  0.03408350  0.34101585  0.50329359    -0.17600
H925        H  0.06517790  0.31273591  0.49900442     0.20400
H926        H  0.04667514  0.34996832  0.35916322     0.18800
H927        H  0.07537988  0.32592845  0.31811588     0.18700
H928        H  0.03341983  0.33632011  0.53833735     0.14600
C929        C  0.89013749  0.36194496  0.62087869     0.30000
C930        C  0.87624091  0.34715423  0.62283820    -0.36300
C931        C  0.86952863  0.34235983  0.66643120     0.16000
C932        C  0.87621141  0.35142311  0.70549450     0.21800
C933        C  0.88981012  0.36651948  0.70345339    -0.34400
C934        C  0.89642612  0.37142159  0.65977281     0.15900
O935        O  0.90040868  0.36649930  0.58472034    -0.26500
C936        C  0.91317699  0.37943107  0.60007831     0.05700
C937        C  0.91139262  0.38306791  0.64666136    -0.31300
O938        O  0.87068660  0.34248129  0.74280465    -0.23200
C939        C  0.85988297  0.32780194  0.72773092    -0.03200
C940        C  0.85869432  0.32700874  0.68039339    -0.17600
H941        H  0.87200805  0.33899521  0.59274483     0.20400
H942        H  0.89585955  0.37301334  0.73401833     0.18800
H943        H  0.92112075  0.39122872  0.66844583     0.18700
H944        H  0.85291973  0.31540083  0.65940654     0.14600
C945        C  0.00062628  0.58658793  0.74117853     0.30000
C946        C  0.00905636  0.58266271  0.78362888    -0.36300
C947        C  0.00236012  0.59381790  0.82044282     0.16000
C948        C  0.98851608  0.60798892  0.81559808     0.21800
C949        C  0.97973764  0.61155480  0.77345624    -0.34400
C950        C  0.98619769  0.60019607  0.73680275     0.15900
O951        O  0.00668842  0.58003188  0.70142056    -0.26500
C952        C  0.99560099  0.58907333  0.67133214     0.05700
C953        C  0.98247695  0.60167746  0.69143317    -0.31300
O954        O  0.98489478  0.61716717  0.85409300    -0.23200
C955        C  0.99637591  0.60862038  0.88409744    -0.03200
C956        C  0.00753226  0.59390169  0.86528081    -0.17600
H957        H  0.02054681  0.57222601  0.78733548     0.20400
H958        H  0.96905918  0.62279857  0.76928171     0.18800
H959        H  0.97354188  0.61233837  0.67480619     0.18700
H960        H  0.01774181  0.58457030  0.88223366     0.14600
C961        C  0.99902912  0.61638288  0.31726323     0.30000
C962        C  0.00707289  0.62187497  0.27556848    -0.36300
C963        C  0.99905992  0.61314501  0.23673451     0.16000
C964        C  0.98407466  0.60000244  0.23879377     0.21800
C965        C  0.97605814  0.59444304  0.28061197    -0.34400
C966        C  0.98411448  0.60316851  0.31955965     0.15900
O967        O  0.00461480  0.62251332  0.35767858    -0.26500
C968        C  0.99314294  0.61319127  0.38636631     0.05700
C969        C  0.98002437  0.60093671  0.36470438    -0.31300
O970        O  0.97825776  0.59431504  0.19807595    -0.23200
C971        C  0.98976196  0.60383219  0.16973265    -0.03200
C972        C  0.00305317  0.61571199  0.19181653    -0.17600
H973        H  0.01873130  0.63226265  0.27358006     0.20400
H974        H  0.96429942  0.58417827  0.28258308     0.18800
H975        H  0.96947016  0.59144929  0.37996960     0.18700
H976        H  0.01349845  0.62543274  0.17690581     0.14600
C977        C  0.93874199  0.66959640  0.57502818     0.30000
C978        C  0.93245601  0.68798631  0.58888082    -0.36300
C979        C  0.91457888  0.68871217  0.61134277     0.16000
C980        C  0.90341512  0.67251583  0.61888074     0.21800
C981        C  0.90956213  0.65415122  0.60444005    -0.34400
C982        C  0.92763624  0.65338499  0.58287619     0.15900
O983        O  0.95587328  0.66535846  0.55788529    -0.26500
C984        C  0.95579043  0.64618070  0.55516048     0.05700
C985        C  0.93857308  0.63797309  0.57003884    -0.31300
O986        O  0.88813785  0.67626404  0.64435522    -0.23200
C987        C  0.88960585  0.69507434  0.65347604    -0.03200
C988        C  0.90570925  0.70357752  0.63360668    -0.17600
H989        H  0.94138201  0.70069143  0.58477429     0.20400
H990        H  0.90136620  0.64124725  0.61187552     0.18800
H991        H  0.93503099  0.62281025  0.57302604     0.18700
H992        H  0.91075969  0.71831033  0.63739980     0.14600
C993        C  0.98813517  0.48428960  0.55507292     0.30000
C994        C  0.00258976  0.49725901  0.56977600    -0.36300
C995        C  0.00336495  0.51505520  0.54727021     0.16000
C996        C  0.99065584  0.51977088  0.51290523     0.21800
C997        C  0.97604900  0.50689888  0.49857831    -0.34400
C998        C  0.97530120  0.48907003  0.52100310     0.15900
O999        O  0.98621756  0.46620847  0.56802575    -0.26500
C1000       C  0.97185404  0.45920357  0.54234510     0.05700
C1001       C  0.96434104  0.47291983  0.51271152    -0.31300
O1002       O  0.99355182  0.53736388  0.49749441    -0.23200
C1003       C  0.00837922  0.54410529  0.52204491    -0.03200
C1004       C  0.01511695  0.53077986  0.55361214    -0.17600
H1005       H  0.01281949  0.49353330  0.59621283     0.20400
H1006       H  0.96612130  0.51045141  0.47137539     0.18800
H1007       H  0.95383686  0.47072862  0.48575665     0.18700
H1008       H  0.02618038  0.53282367  0.57935188     0.14600
C1009       C  0.42149268  0.81331006  0.35972383     0.30000
C1010       C  0.44137974  0.81706711  0.36436596    -0.36300
C1011       C  0.44714435  0.82616889  0.40522296     0.16000
C1012       C  0.43414352  0.83159320  0.43862217     0.21800
C1013       C  0.41432116  0.82772669  0.43412967    -0.34400
C1014       C  0.40862007  0.81834164  0.39371719     0.15900
O1015       O  0.41292140  0.80480139  0.32461779    -0.26500
C1016       C  0.39434468  0.80425112  0.33648491     0.05700
C1017       C  0.39083751  0.81248496  0.37913932    -0.31300
O1018       O  0.44237177  0.84133912  0.47223769    -0.23200
C1019       C  0.46097918  0.84180892  0.46092110    -0.03200
C1020       C  0.46484705  0.83252057  0.41962071    -0.17600
H1021       H  0.45161349  0.81326565  0.33789028     0.20400
H1022       H  0.40402744  0.83196158  0.46010536     0.18800
H1023       H  0.37719017  0.81384904  0.39686708     0.18700
H1024       H  0.47839694  0.83193543  0.40124708     0.14600
C1025       C  0.09389524  0.63967212  0.44870079     0.30000
C1026       C  0.10628866  0.65571851  0.44873407    -0.36300
C1027       C  0.11250230  0.66209649  0.40597133     0.16000
C1028       C  0.10727224  0.65303897  0.36567779     0.21800
C1029       C  0.09516989  0.63663980  0.36571369    -0.34400
C1030       C  0.08861762  0.63044838  0.40863789     0.15900
O1031       O  0.08333595  0.63423142  0.48362269    -0.26500
C1032       C  0.07120732  0.62113434  0.46640489     0.05700
C1033       C  0.07389369  0.61809989  0.41977527    -0.31300
O1034       O  0.11210214  0.66326286  0.32950906    -0.23200
C1035       C  0.12050581  0.67906215  0.34685129    -0.03200
C1036       C  0.12109306  0.67905351  0.39427095    -0.17600
H1037       H  0.10931749  0.66383672  0.47967877     0.20400
H1038       H  0.08980675  0.63028188  0.33432524     0.18800
H1039       H  0.06451778  0.61027884  0.39651413     0.18700
H1040       H  0.12528240  0.69080997  0.41685124     0.14600
C1041       C  0.05953505  0.69493618  0.14437562     0.30000
C1042       C  0.03981701  0.69421401  0.13303086    -0.36300
C1043       C  0.03465464  0.68109378  0.09833396     0.16000
C1044       C  0.04801267  0.66942930  0.07661537     0.21800
C1045       C  0.06778311  0.67052018  0.08712956    -0.34400
C1046       C  0.07295773  0.68372606  0.12157697     0.15900
O1047       O  0.06731370  0.70509632  0.17791413    -0.26500
C1048       C  0.08599365  0.70058579  0.17611886     0.05700
C1049       C  0.09041360  0.68747113  0.14150133    -0.31300
O1050       O  0.03984937  0.65669545  0.04905587    -0.23200
C1051       C  0.02103518  0.66035405  0.05262076    -0.03200
C1052       C  0.01692102  0.67553575  0.08248077    -0.17600
H1053       H  0.02916270  0.70272166  0.15122697     0.20400
H1054       H  0.07828391  0.66116379  0.07087868     0.18800
H1055       H  0.10427190  0.68105265  0.13354438     0.18700
H1056       H  0.00289896  0.68063098  0.09361561     0.14600
C1057       C  0.25676942  0.74886538  0.25818862     0.30000
C1058       C  0.24294492  0.73393141  0.25647765    -0.36300
C1059       C  0.22388834  0.73908687  0.26753279     0.16000
C1060       C  0.21887029  0.75775656  0.27907419     0.21800
C1061       C  0.23272070  0.77271187  0.28083331    -0.34400
C1062       C  0.25180777  0.76754744  0.26977310     0.15900
O1063       O  0.27547240  0.74688092  0.25161216    -0.26500
C1064       C  0.28279342  0.76450067  0.25848265     0.05700
C1065       C  0.26867908  0.77807665  0.26973222    -0.31300
O1066       O  0.20010843  0.75967694  0.28530034    -0.23200
C1067       C  0.19287740  0.74200900  0.27823973    -0.03200
C1068       C  0.20708500  0.72851446  0.26726456    -0.17600
H1069       H  0.24683143  0.71926237  0.24730058     0.20400
H1070       H  0.22882929  0.78739043  0.28990390     0.18800
H1071       H  0.27069325  0.79304774  0.27960047     0.18700
H1072       H  0.20516728  0.71355336  0.25719212     0.14600
C1073       C  0.49734869  0.09014692  0.30426953     0.30000
C1074       C  0.50561759  0.07986407  0.26768883    -0.36300
C1075       C  0.49752357  0.08322272  0.22449259     0.16000
C1076       C  0.48205920  0.09547840  0.21786536     0.21800
C1077       C  0.47376619  0.10566750  0.25438728    -0.34400
C1078       C  0.48221246  0.10274662  0.29720069     0.15900
O1079       O  0.50329127  0.09015864  0.34718239    -0.26500
C1080       C  0.49206352  0.10329724  0.36728432     0.05700
C1081       C  0.47875303  0.11157162  0.33785006    -0.31300
O1082       O  0.47838103  0.09840566  0.17435183    -0.23200
C1083       C  0.49164659  0.08795339  0.15265649    -0.03200
C1084       C  0.50395563  0.07821823  0.18213091    -0.17600
H1085       H  0.51811449  0.07070734  0.27220175     0.20400
H1086       H  0.46231314  0.11605160  0.24933882     0.18800
H1087       H  0.46799717  0.12246417  0.34549157     0.18700
H1088       H  0.51698815  0.07035435  0.17359891     0.14600
C1089       C  0.48950327  0.12159717  0.80127566     0.30000
C1090       C  0.49795456  0.12668045  0.75955791    -0.36300
C1091       C  0.49160531  0.11630657  0.72105238     0.16000
C1092       C  0.47766140  0.10209678  0.72336365     0.21800
C1093       C  0.46913961  0.09705175  0.76515665    -0.34400
C1094       C  0.47562640  0.10732779  0.80382748     0.15900
O1095       O  0.49431018  0.12856962  0.84165467    -0.26500
C1096       C  0.48336320  0.11877169  0.87073844     0.05700
C1097       C  0.47132877  0.10537526  0.84912459    -0.31300
O1098       O  0.47356869  0.09457762  0.68294989    -0.23200
C1099       C  0.48521480  0.10390435  0.65443347    -0.03200
C1100       C  0.49679949  0.11758739  0.67628880    -0.17600
H1101       H  0.50898894  0.13772778  0.75742751     0.20400
H1102       H  0.45836014  0.08576637  0.76740403     0.18800
H1103       H  0.46174436  0.09497580  0.86463310     0.18700
H1104       H  0.50696244  0.12753944  0.66115021     0.14600
C1105       C  0.43097648  0.17133239  0.06948863     0.30000
C1106       C  0.41875652  0.18757259  0.06815686    -0.36300
C1107       C  0.40589496  0.18970494  0.10505940     0.16000
C1108       C  0.40540814  0.17685458  0.14080023     0.21800
C1109       C  0.41720429  0.16055503  0.14160115    -0.34400
C1110       C  0.42979692  0.15836518  0.10483901     0.15900
O1111       O  0.44458109  0.16657192  0.03969015    -0.26500
C1112       C  0.45185561  0.15027226  0.05637072     0.05700
C1113       C  0.44315268  0.14456985  0.09665902    -0.31300
O1114       O  0.39382151  0.18235868  0.17381744    -0.23200
C1115       C  0.38638773  0.19875958  0.15897505    -0.03200
C1116       C  0.39315899  0.20407808  0.11618086    -0.17600
H1117       H  0.41951120  0.19799271  0.04093713     0.20400
H1118       H  0.41695150  0.15052035  0.16968414     0.18800
H1119       H  0.44642317  0.13210998  0.11731913     0.18700
H1120       H  0.39016944  0.21719668  0.09768421     0.14600
C1121       C  0.59750156  0.15334950  0.83251710     0.30000
C1122       C  0.58186889  0.14038713  0.83351484    -0.36300
C1123       C  0.57650155  0.13359742  0.87661382     0.16000
C1124       C  0.58592540  0.13920845  0.91608435     0.21800
C1125       C  0.60194314  0.15173930  0.91490951    -0.34400
C1126       C  0.60731763  0.15856198  0.87175375     0.15900
O1127       O  0.60238677  0.16405559  0.79748385    -0.26500
C1128       C  0.61579727  0.17607096  0.81386843     0.05700
C1129       C  0.61956310  0.17324373  0.85996415    -0.31300
O1130       O  0.57652944  0.13392031  0.95307752    -0.23200
C1131       C  0.56114642  0.12437815  0.93729191    -0.03200
C1132       C  0.56035479  0.12377808  0.88989668    -0.17600
H1133       H  0.57345356  0.13711387  0.80325999     0.20400
H1134       H  0.60872328  0.15705372  0.94587684     0.18800
H1135       H  0.62802894  0.18234289  0.88264388     0.18700
H1136       H  0.54848762  0.11889491  0.86860301     0.14600
C1137       C  0.48704266  0.88889238  0.70646800     0.30000
C1138       C  0.49468488  0.88342140  0.74859157    -0.36300
C1139       C  0.48953621  0.89503143  0.78588334     0.16000
C1140       C  0.47729258  0.91067200  0.78232679     0.21800
C1141       C  0.46979846  0.91629891  0.73995010    -0.34400
C1142       C  0.47529953  0.90488938  0.70233792     0.15900
O1143       O  0.49058516  0.88042938  0.66708024    -0.26500
C1144       C  0.48118855  0.89120274  0.63711580     0.05700
C1145       C  0.47141848  0.90668867  0.65694923    -0.31300
O1146       O  0.47344487  0.91866080  0.82231513    -0.23200
C1147       C  0.48374067  0.90823141  0.85146250    -0.03200
C1148       C  0.49409871  0.89341927  0.83068117    -0.17600
H1149       H  0.50408572  0.87104148  0.75198803     0.20400
H1150       H  0.46038043  0.92865143  0.73656546     0.18800
H1151       H  0.46318812  0.91786694  0.64028201     0.18700
H1152       H  0.50270562  0.88232165  0.84667379     0.14600
C1153       C  0.48580562  0.88742023  0.20262046     0.30000
C1154       C  0.47886601  0.87924742  0.24294071    -0.36300
C1155       C  0.48415159  0.88879148  0.28332805     0.16000
C1156       C  0.49575807  0.90502898  0.28386691     0.21800
C1157       C  0.50254343  0.91330917  0.24351845    -0.34400
C1158       C  0.49698432  0.90395325  0.20308555     0.15900
O1159       O  0.48234729  0.88104013  0.16109908    -0.26500
C1160       C  0.49123275  0.89372897  0.13464374     0.05700
C1161       C  0.50054927  0.90839116  0.15873828    -0.31300
O1162       O  0.49970585  0.91105262  0.32545019    -0.23200
C1163       C  0.49026181  0.89873387  0.35181436    -0.03200
C1164       C  0.48024234  0.88457493  0.32761484    -0.17600
H1165       H  0.46995720  0.86639508  0.24278381     0.20400
H1166       H  0.51152294  0.92610528  0.24368647     0.18800
H1167       H  0.50851351  0.92056927  0.14552781     0.18700
H1168       H  0.47212140  0.87247591  0.34076458     0.14600
C1169       C  0.57105619  0.82525789  0.89378328     0.30000
C1170       C  0.56726209  0.84151242  0.92124971    -0.36300
C1171       C  0.54800935  0.84382936  0.93513616     0.16000
C1172       C  0.53353215  0.83103091  0.92292132     0.21800
C1173       C  0.53738800  0.81467110  0.89604836    -0.34400
C1174       C  0.55659107  0.81235484  0.88217266     0.15900
O1175       O  0.58766216  0.82097497  0.87419722    -0.26500
C1176       C  0.58373715  0.80508731  0.85002854     0.05700
C1177       C  0.56468703  0.79898547  0.85396844    -0.31300
O1178       O  0.51638340  0.83654705  0.93740987    -0.23200
C1179       C  0.51990964  0.85304077  0.95939014    -0.03200
C1180       C  0.53933741  0.85829314  0.95920474    -0.17600
H1181       H  0.57838131  0.85191383  0.92995014     0.20400
H1182       H  0.52609320  0.80475433  0.88555178     0.18800
H1183       H  0.55763580  0.78698283  0.83680258     0.18700
H1184       H  0.54595270  0.87120076  0.97334135     0.14600
C1185       C  0.37284078  0.84949012  0.16259077     0.30000
C1186       C  0.38660761  0.86439676  0.16573851    -0.36300
C1187       C  0.39447667  0.87077779  0.12439459     0.16000
C1188       C  0.38866816  0.86346123  0.08261345     0.21800
C1189       C  0.37484185  0.84862247  0.07943272    -0.34400
C1190       C  0.36745973  0.84179437  0.12085687     0.15900
O1191       O  0.36641930  0.83918196  0.19704307    -0.26500
C1192       C  0.35696724  0.82454853  0.17738079     0.05700
C1193       C  0.35716027  0.82544797  0.12994156    -0.31300
O1194       O  0.39953981  0.86966764  0.04884502    -0.23200
C1195       C  0.41260681  0.88100412  0.06904579    -0.03200
C1196       C  0.41025312  0.88210938  0.11614280    -0.17600
H1197       H  0.39203460  0.86947739  0.19836833     0.20400
H1198       H  0.37133399  0.84175866  0.04713530     0.18800
H1199       H  0.35235978  0.81451708  0.10580300     0.18700
H1200       H  0.41980182  0.88881866  0.14094178     0.14600
C1201       C  0.47041959  0.98949622  0.00107952     0.30000
C1202       C  0.46799256  0.00720028  0.97886762    -0.36300
C1203       C  0.48183838  0.02151955  0.98860690     0.16000
C1204       C  0.49688376  0.01884537  0.01878302     0.21800
C1205       C  0.49924539  0.00118092  0.04129141    -0.34400
C1206       C  0.48551852  0.98676411  0.03111913     0.15900
O1207       O  0.46074166  0.97339197  0.99232365    -0.26500
C1208       C  0.46964147  0.96013662  0.01730631     0.05700
C1209       C  0.48510187  0.96773520  0.04221916    -0.31300
O1210       O  0.50777088  0.03446299  0.02375719    -0.23200
C1211       C  0.49972293  0.04726033  0.99589017    -0.03200
C1212       C  0.48358420  0.03988699  0.97310324    -0.17600
H1213       H  0.45649363  0.00944092  0.95443644     0.20400
H1214       H  0.51121297  0.99868344  0.06428607     0.18800
H1215       H  0.49586851  0.95987403  0.06136888     0.18700
H1216       H  0.47381914  0.04739634  0.95051631     0.14600
C1217       C  0.62341457  0.24564540  0.95539010     0.30000
C1218       C  0.62006285  0.23562214  0.99600312    -0.36300
C1219       C  0.62894606  0.24321668  0.03519455     0.16000
C1220       C  0.64032296  0.25958161  0.03431952     0.21800
C1221       C  0.64371329  0.26960153  0.99360134    -0.34400
C1222       C  0.63482184  0.26198453  0.95430787     0.15900
O1223       O  0.61692580  0.24067731  0.91481896    -0.26500
C1224       C  0.62418454  0.25393745  0.88705961     0.05700
C1225       C  0.63547696  0.26765621  0.90970542    -0.31300
O1226       O  0.64661231  0.26456751  0.07515941    -0.23200
C1227       C  0.63923776  0.25122949  0.10258957    -0.03200
C1228       C  0.62812445  0.23750843  0.07959982    -0.17600
H1229       H  0.61113638  0.22278406  0.99692021     0.20400
H1230       H  0.65259651  0.28246385  0.99270438     0.18800
H1231       H  0.64353057  0.27952341  0.89528892     0.18700
H1232       H  0.61998090  0.22563550  0.09375018     0.14600
C1233       C  0.64745756  0.24267788  0.45311460     0.30000
C1234       C  0.65836345  0.23401330  0.48779454    -0.36300
C1235       C  0.65574905  0.24153084  0.53206812     0.16000
C1236       C  0.64347024  0.25672710  0.54159304     0.21800
C1237       C  0.63249405  0.26533871  0.50695316    -0.34400
C1238       C  0.63483160  0.25756782  0.46283719     0.15900
O1239       O  0.64733005  0.23766976  0.40944723    -0.26500
C1240       C  0.63412614  0.24923167  0.39113106     0.05700
C1241       C  0.62587051  0.26187575  0.42279706    -0.31300
O1242       O  0.64179034  0.26015046  0.58582667    -0.23200
C1243       C  0.65315906  0.24702085  0.60503168    -0.03200
C1244       C  0.66211446  0.23499966  0.57313208    -0.17600
H1245       H  0.66773792  0.22183905  0.48098607     0.20400
H1246       H  0.62225856  0.27675424  0.51420014     0.18800
H1247       H  0.61512646  0.27291906  0.41687992     0.18700
H1248       H  0.67052843  0.22214071  0.57951114     0.14600
C1249       C  0.54316130  0.18048807  0.14778777     0.30000
C1250       C  0.54315235  0.19962442  0.16423751    -0.36300
C1251       C  0.55958698  0.20541826  0.18897416     0.16000
C1252       C  0.57481403  0.19309812  0.19739789     0.21800
C1253       C  0.57473284  0.17393744  0.18141867    -0.34400
C1254       C  0.55843788  0.16823335  0.15626827     0.15900
O1255       O  0.53018707  0.17264166  0.12028611    -0.26500
C1256       C  0.53728402  0.15518255  0.11093629     0.05700
C1257       C  0.55476137  0.15158611  0.13267929    -0.31300
O1258       O  0.58925475  0.20178251  0.21848026    -0.23200
C1259       C  0.58330133  0.21993326  0.22371520    -0.03200
C1260       C  0.56491145  0.22308234  0.20601322    -0.17600
H1261       H  0.53154457  0.20953249  0.15656073     0.20400
H1262       H  0.58690055  0.16440284  0.18656841     0.18800
H1263       H  0.56391457  0.13898315  0.12949276     0.18700
H1264       H  0.55703134  0.23654355  0.20418452     0.14600
C1265       C  0.84502010  0.24378551  0.59170387     0.30000
C1266       C  0.83564301  0.23392032  0.55587492    -0.36300
C1267       C  0.83780782  0.24184425  0.51221261     0.16000
C1268       C  0.84839459  0.25837362  0.50422111     0.21800
C1269       C  0.85765755  0.26829951  0.54006598    -0.34400
C1270       C  0.85561721  0.26029594  0.58362023     0.15900
O1271       O  0.84479946  0.23909001  0.63534581    -0.26500
C1272       C  0.85554116  0.25271665  0.65538684     0.05700
C1273       C  0.86262809  0.26624762  0.62475752    -0.31300
O1274       O  0.84933122  0.26264473  0.46042766    -0.23200
C1275       C  0.83918340  0.24866880  0.44003938    -0.03200
C1276       C  0.83159833  0.23540415  0.47067024    -0.17600
H1277       H  0.82741129  0.22087443  0.56154018     0.20400
H1278       H  0.86612581  0.28119565  0.53431388     0.18800
H1279       H  0.87119076  0.27901373  0.63204108     0.18700
H1280       H  0.82344937  0.22240579  0.46316785     0.14600
C1281       C  0.82106926  0.26037002  0.00749655     0.30000
C1282       C  0.81679033  0.26924224  0.04961184    -0.36300
C1283       C  0.82632257  0.26172502  0.08776443     0.16000
C1284       C  0.83933956  0.24669807  0.08435569     0.21800
C1285       C  0.84311888  0.23742827  0.04257865    -0.34400
C1286       C  0.83337629  0.24473776  0.00459077     0.15900
O1287       O  0.81623736  0.26692922  0.96703690    -0.26500
C1288       C  0.82504498  0.25501022  0.93786123     0.05700
C1289       C  0.83577130  0.24078952  0.95932621    -0.31300
O1290       O  0.84779912  0.24295623  0.12345019    -0.23200
C1291       C  0.83992237  0.25550476  0.15255409    -0.03200
C1292       C  0.82627281  0.26746523  0.13250756    -0.17600
H1293       H  0.80746988  0.28173493  0.05210504     0.20400
H1294       H  0.85358130  0.22588627  0.03960727     0.18800
H1295       H  0.84592600  0.23079665  0.94392799     0.18700
H1296       H  0.81798121  0.27895477  0.14828736     0.14600
C1297       C  0.93165289  0.32322930  0.39629749     0.30000
C1298       C  0.93240337  0.30454612  0.37724808    -0.36300
C1299       C  0.91598968  0.29861680  0.35263044     0.16000
C1300       C  0.90005662  0.31035144  0.34709328     0.21800
C1301       C  0.89933498  0.32898153  0.36591445    -0.34400
C1302       C  0.91565135  0.33484555  0.39056737     0.15900
O1303       O  0.94489345  0.33140906  0.42253174    -0.26500
C1304       C  0.93721839  0.34845056  0.43350290     0.05700
C1305       C  0.91906126  0.35136415  0.41456127    -0.31300
O1306       O  0.88584773  0.30160537  0.32548616    -0.23200
C1307       C  0.89265215  0.28400548  0.31700677    -0.03200
C1308       C  0.91139218  0.28126648  0.33292102    -0.17600
H1309       H  0.94466262  0.29512379  0.38235499     0.20400
H1310       H  0.88669981  0.33805438  0.36266890     0.18800
H1311       H  0.90952783  0.36361462  0.41903741     0.18700
H1312       H  0.91993126  0.26818193  0.33212082     0.14600
C1313       C  0.71990308  0.24486525  0.26595867     0.30000
C1314       C  0.73354386  0.22981035  0.26530291    -0.36300
C1315       C  0.75283837  0.23525019  0.27238569     0.16000
C1316       C  0.75807972  0.25423820  0.27982662     0.21800
C1317       C  0.74445223  0.26927448  0.28052782    -0.34400
C1318       C  0.72519193  0.26384657  0.27332511     0.15900
O1319       O  0.70128794  0.24301754  0.25858461    -0.26500
C1320       C  0.69442845  0.26097023  0.26121748     0.05700
C1321       C  0.70864242  0.27465012  0.27059599    -0.31300
O1322       O  0.77669844  0.25617722  0.28671594    -0.23200
C1323       C  0.78369607  0.23829533  0.28360490    -0.03200
C1324       C  0.76950715  0.22453255  0.27445793    -0.17600
H1325       H  0.72937697  0.21491982  0.25939809     0.20400
H1326       H  0.74862704  0.28417639  0.28623834     0.18800
H1327       H  0.70713209  0.29017049  0.27343480     0.18700
H1328       H  0.77111504  0.20903516  0.27123418     0.14600
C1329       C  0.61183736  0.34420081  0.37297106     0.30000
C1330       C  0.60535692  0.35057218  0.41593431    -0.36300
C1331       C  0.59070730  0.36459778  0.41590503     0.16000
C1332       C  0.58269341  0.37159063  0.37622776     0.21800
C1333       C  0.58985966  0.36594136  0.33333270    -0.34400
C1334       C  0.60477080  0.35219489  0.33336658     0.15900
O1335       O  0.62218914  0.32850967  0.36505579    -0.26500
C1336       C  0.62235178  0.32679167  0.31978678     0.05700
C1337       C  0.61199605  0.34133165  0.29834574    -0.31300
O1338       O  0.56657892  0.38134533  0.38370648    -0.23200
C1339       C  0.56463363  0.38126762  0.42887793    -0.03200
C1340       C  0.57932274  0.37117137  0.45062437    -0.17600
H1341       H  0.61015392  0.34381342  0.44710411     0.20400
H1342       H  0.58312825  0.37064966  0.30200261     0.18800
H1343       H  0.60780255  0.34191655  0.26278363     0.18700
H1344       H  0.57999474  0.36706392  0.48614315     0.14600
C1345       C  0.56642248  0.33011145  0.60634241     0.30000
C1346       C  0.58084273  0.31598552  0.60416642    -0.36300
C1347       C  0.58376374  0.30533955  0.64386597     0.16000
C1348       C  0.57308970  0.30807287  0.68313338     0.21800
C1349       C  0.55878074  0.32254273  0.68554582    -0.34400
C1350       C  0.55603307  0.33350911  0.64577767     0.15900
O1351       O  0.56077874  0.34095354  0.57226459    -0.26500
C1352       C  0.54680807  0.35183252  0.58992468     0.05700
C1353       C  0.54325843  0.34799630  0.63576474    -0.31300
O1354       O  0.57823479  0.29605768  0.71594618    -0.23200
C1355       C  0.59253218  0.28579375  0.69725672    -0.03200
C1356       C  0.59655135  0.29103436  0.65262865    -0.17600
H1357       H  0.58910646  0.31334801  0.57341864     0.20400
H1358       H  0.55033818  0.32500089  0.71606997     0.18800
H1359       H  0.53221763  0.35416879  0.65755469     0.18700
H1360       H  0.60741949  0.28511633  0.62993408     0.14600
C1361       C  0.41722076  0.66552305  0.34282481     0.30000
C1362       C  0.40082226  0.67026424  0.31727468    -0.36300
C1363       C  0.40012090  0.68919132  0.30088601     0.16000
C1364       C  0.41449483  0.70265215  0.30896010     0.21800
C1365       C  0.43112579  0.69777532  0.33373019    -0.34400
C1366       C  0.43183130  0.67880627  0.35016707     0.15900
O1367       O  0.42000243  0.64925508  0.36494858    -0.26500
C1368       C  0.43667533  0.65211737  0.38654691     0.05700
C1369       C  0.44476223  0.67017038  0.37826613    -0.31300
O1370       O  0.40988948  0.72001589  0.29405079    -0.23200
C1371       C  0.39241483  0.71749948  0.27590340    -0.03200
C1372       C  0.38573598  0.69860235  0.27899882    -0.17600
H1373       H  0.38903872  0.66018347  0.31224410     0.20400
H1374       H  0.44230844  0.70824999  0.34138934     0.18800
H1375       H  0.45772090  0.67641755  0.39298789     0.18700
H1376       H  0.37177111  0.69290288  0.26899637     0.14600
C1377       C  0.48629951  0.51799415  0.51237533     0.30000
C1378       C  0.50139452  0.50508038  0.52250275    -0.36300
C1379       C  0.49965061  0.48629395  0.50427105     0.16000
C1380       C  0.48388021  0.48059427  0.47869889     0.21800
C1381       C  0.46882693  0.49350938  0.46846398    -0.34400
C1382       C  0.47070638  0.51234741  0.48612637     0.15900
O1383       O  0.48577255  0.53654333  0.52300272    -0.26500
C1384       C  0.46968381  0.54301094  0.50322934     0.05700
C1385       C  0.45962086  0.52849289  0.48003320    -0.31300
O1386       O  0.48425385  0.46201214  0.46853802    -0.23200
C1387       C  0.50066017  0.45560898  0.48690102    -0.03200
C1388       C  0.51094320  0.47018247  0.50939983    -0.17600
H1389       H  0.51373935  0.50944956  0.54286354     0.20400
H1390       H  0.45646423  0.48913414  0.44816629     0.18800
H1391       H  0.44688080  0.52992511  0.45887264     0.18700
H1392       H  0.52372289  0.46871537  0.53040881     0.14600
C1393       C  0.89497856  0.14030194  0.11500405     0.30000
C1394       C  0.87998183  0.15393865  0.11191945    -0.36300
C1395       C  0.87290089  0.16145089  0.15337810     0.16000
C1396       C  0.87979509  0.15561316  0.19518363     0.21800
C1397       C  0.89491635  0.14208875  0.19828856    -0.34400
C1398       C  0.90228628  0.13489169  0.15676163     0.15900
O1399       O  0.90526595  0.13343693  0.08052611    -0.26500
C1400       C  0.91948428  0.12356004  0.10018188     0.05700
C1401       C  0.91840482  0.12410417  0.14766710    -0.31300
O1402       O  0.87252360  0.16588292  0.22932291    -0.23200
C1403       C  0.86087535  0.17859612  0.20932564    -0.03200
C1404       C  0.86070111  0.17657601  0.16199634    -0.17600
H1405       H  0.87502405  0.15924180  0.07933137     0.20400
H1406       H  0.90130913  0.13836900  0.23073976     0.18800
H1407       H  0.92892018  0.11881051  0.17186729     0.18700
H1408       H  0.85390510  0.18595098  0.13739120     0.14600
C1409       C  0.93043809  0.17801480  0.90095615     0.30000
C1410       C  0.93052702  0.19678202  0.88348835    -0.36300
C1411       C  0.91332573  0.20282811  0.86287540     0.16000
C1412       C  0.89702886  0.19133461  0.86047147     0.21800
C1413       C  0.89708558  0.17238335  0.87694170    -0.34400
C1414       C  0.91442538  0.16619926  0.89674061     0.15900
O1415       O  0.94446682  0.16993846  0.92437209    -0.26500
C1416       C  0.93752028  0.15257856  0.93421256     0.05700
C1417       C  0.91896522  0.14934700  0.91771485    -0.31300
O1418       O  0.88206512  0.20048535  0.84324302    -0.23200
C1419       C  0.88900045  0.21790334  0.83363628    -0.03200
C1420       C  0.90839128  0.22016266  0.84479522    -0.17600
H1421       H  0.94296045  0.20618854  0.88683413     0.20400
H1422       H  0.88436912  0.16329021  0.87548967     0.18800
H1423       H  0.90980122  0.13688608  0.92288379     0.18700
H1424       H  0.91722324  0.23301735  0.84218357     0.14600
C1425       C  0.04339744  0.82286647  0.16044537     0.30000
C1426       C  0.04338547  0.80334494  0.17290317    -0.36300
C1427       C  0.05826984  0.79768159  0.20234813     0.16000
C1428       C  0.07201604  0.81045732  0.21874053     0.21800
C1429       C  0.07188538  0.82998610  0.20675456    -0.34400
C1430       C  0.05720592  0.83556903  0.17684131     0.15900
O1431       O  0.03187475  0.83088417  0.13032077    -0.26500
C1432       C  0.03847432  0.84887935  0.12724134     0.05700
C1433       C  0.05417873  0.85265921  0.15550400    -0.31300
O1434       O  0.08557668  0.80186200  0.24244201    -0.23200
C1435       C  0.08053111  0.78334029  0.24132313    -0.03200
C1436       C  0.06358081  0.77982682  0.21706627    -0.17600
H1437       H  0.03305437  0.79313168  0.15894489     0.20400
H1438       H  0.08301089  0.83990688  0.21818312     0.18800
H1439       H  0.06258938  0.86579955  0.15842937     0.18700
H1440       H  0.05687544  0.76606582  0.20912625     0.14600
C1441       C  0.99437650  0.02088910  0.03995992     0.30000
C1442       C  0.00919765  0.00758408  0.04860885    -0.36300
C1443       C  0.00620600  0.98876252  0.03212212     0.16000
C1444       C  0.98975050  0.98345057  0.00855786     0.21800
C1445       C  0.97479797  0.99673894  0.00026873    -0.34400
C1446       C  0.97772370  0.01558004  0.01715104     0.15900
O1447       O  0.99508583  0.03952937  0.04874787    -0.26500
C1448       C  0.97854016  0.04637897  0.03233126     0.05700
C1449       C  0.96702949  0.03208693  0.01239954    -0.31300
O1450       O  0.98968661  0.96495450  0.99756253    -0.23200
C1451       C  0.00628191  0.95826829  0.01433522    -0.03200
C1452       C  0.01718926  0.97248984  0.03619167    -0.17600
H1453       H  0.02229887  0.01171892  0.06643055     0.20400
H1454       H  0.96183953  0.99267737  0.98178360     0.18800
H1455       H  0.95382081  0.03390458  0.99309719     0.18700
H1456       H  0.03062823  0.97084584  0.05468351     0.14600
C1457       C  0.32234102  0.74423168  0.97024197     0.30000
C1458       C  0.31664196  0.73650652  0.01226832    -0.36300
C1459       C  0.32672286  0.74333594  0.05072234     0.16000
C1460       C  0.34148203  0.75669081  0.04771726     0.21800
C1461       C  0.34668273  0.76491554  0.00605539    -0.34400
C1462       C  0.33647209  0.75827715  0.96777787     0.15900
O1463       O  0.31714752  0.73774753  0.92961973    -0.26500
C1464       C  0.32760606  0.74822670  0.90092591     0.05700
C1465       C  0.33977598  0.76131644  0.92272569    -0.31300
O1466       O  0.35010262  0.75983100  0.08705373    -0.23200
C1467       C  0.34061758  0.74858090  0.11588616    -0.03200
C1468       C  0.32573985  0.73810213  0.09544139    -0.17600
H1469       H  0.30587218  0.72521948  0.01451936     0.20400
H1470       H  0.35850291  0.77508651  0.00339033     0.18800
H1471       H  0.35115106  0.76991615  0.90772873     0.18700
H1472       H  0.31605416  0.72780733  0.11097261     0.14600
C1473       C  0.35959262  0.74745313  0.54875620     0.30000
C1474       C  0.36490453  0.73948166  0.50643691    -0.36300
C1475       C  0.35441491  0.74593378  0.46867592     0.16000
C1476       C  0.33989895  0.75951006  0.47234850     0.21800
C1477       C  0.33464294  0.76755844  0.51465275    -0.34400
C1478       C  0.34504088  0.76099335  0.55247309     0.15900
O1479       O  0.36659760  0.74248506  0.58865908    -0.26500
C1480       C  0.35650819  0.75301976  0.61837459     0.05700
C1481       C  0.34294181  0.76493580  0.59785396    -0.31300
O1482       O  0.33239759  0.76390490  0.43254159    -0.23200
C1483       C  0.34204824  0.75285192  0.40302374    -0.03200
C1484       C  0.35592063  0.74130214  0.42351765    -0.17600
H1485       H  0.37620561  0.72876103  0.50330726     0.20400
H1486       H  0.32315768  0.77807106  0.51785908     0.18800
H1487       H  0.33235010  0.77419985  0.61409307     0.18700
H1488       H  0.36618281  0.73165138  0.40731541     0.14600
C1489       C  0.41099662  0.80353774  0.82039255     0.30000
C1490       C  0.42817057  0.80885324  0.84258540    -0.36300
C1491       C  0.42877207  0.82762351  0.86085526     0.16000
C1492       C  0.41375545  0.84059724  0.85650329     0.21800
C1493       C  0.39656313  0.83531339  0.83406710    -0.34400
C1494       C  0.39574963  0.81629937  0.81694476     0.15900
O1495       O  0.40665956  0.78608304  0.80501892    -0.26500
C1496       C  0.38830427  0.78757648  0.79217095     0.05700
C1497       C  0.38076747  0.80603555  0.79872059    -0.31300
O1498       O  0.41698065  0.85692296  0.87902253    -0.23200
C1499       C  0.43416336  0.85417907  0.89836100    -0.03200
C1500       C  0.44211597  0.83623620  0.88835992    -0.17600
H1501       H  0.43985815  0.79870263  0.84745298     0.20400
H1502       H  0.38431478  0.84498256  0.83225899     0.18800
H1503       H  0.36612754  0.81090719  0.79278476     0.18700
H1504       H  0.45544602  0.83015185  0.90115382     0.14600
C1505       C  0.36748859  0.65890101  0.62873298     0.30000
C1506       C  0.37166051  0.65397466  0.58321373    -0.36300
C1507       C  0.38505831  0.63898429  0.57643422     0.16000
C1508       C  0.39371188  0.62931441  0.61196766     0.21800
C1509       C  0.38916666  0.63391649  0.65749202    -0.34400
C1510       C  0.37590828  0.64903864  0.66428611     0.15900
O1511       O  0.35822007  0.67458259  0.64264360    -0.26500
C1512       C  0.36048565  0.67465146  0.68774708     0.05700
C1513       C  0.37139754  0.65912283  0.70296146    -0.31300
O1514       O  0.40830496  0.61837529  0.59826167    -0.23200
C1515       C  0.40885722  0.62082478  0.55328739    -0.03200
C1516       C  0.39472174  0.63351016  0.53802183    -0.17600
H1517       H  0.36615438  0.66237099  0.55509914     0.20400
H1518       H  0.39672916  0.62734088  0.68568948     0.18800
H1519       H  0.37704518  0.65687733  0.73695326     0.18700
H1520       H  0.39341364  0.63969801  0.50438232     0.14600
C1521       C  0.13223664  0.76241091  0.06155684     0.30000
C1522       C  0.12069591  0.76740454  0.02416625    -0.36300
C1523       C  0.12729003  0.76105069  0.98138238     0.16000
C1524       C  0.14432939  0.75097937  0.97544754     0.21800
C1525       C  0.15598054  0.74618471  0.01278327    -0.34400
C1526       C  0.14914307  0.75209774  0.05570067     0.15900
O1527       O  0.12764549  0.76476667  0.10490773    -0.26500
C1528       C  0.14170602  0.75570184  0.12698815     0.05700
C1529       C  0.15552863  0.74766810  0.09814969    -0.31300
O1530       O  0.14746217  0.74610944  0.93243433    -0.23200
C1531       C  0.13204016  0.75287505  0.91077021    -0.03200
C1532       C  0.11905266  0.76232252  0.93948615    -0.17600
H1533       H  0.10708348  0.77487056  0.02833364     0.20400
H1534       H  0.16899895  0.73771909  0.00885017     0.18800
H1535       H  0.16768923  0.73865396  0.10709604     0.18700
H1536       H  0.10561217  0.76933167  0.93058599     0.14600
C1537       C  0.13945661  0.76062312  0.47478127     0.30000
C1538       C  0.15243361  0.76511178  0.50998312    -0.36300
C1539       C  0.14723061  0.75864332  0.55334713     0.16000
C1540       C  0.13048509  0.74838996  0.56159394     0.21800
C1541       C  0.11737883  0.74410991  0.52647459    -0.34400
C1542       C  0.12250820  0.75072377  0.48315347     0.15900
O1543       O  0.14187755  0.76441529  0.43123783    -0.26500
C1544       C  0.12614742  0.75707072  0.41166347     0.05700
C1545       C  0.11350932  0.74851701  0.44229591    -0.31300
O1546       O  0.12810087  0.74458404  0.60514598    -0.23200
C1547       C  0.14347666  0.75258152  0.62492057    -0.03200
C1548       C  0.15587868  0.76150496  0.59439468    -0.17600
H1549       H  0.16562579  0.77306706  0.50400109     0.20400
H1550       H  0.10408993  0.73631923  0.53254042     0.18800
H1551       H  0.10022041  0.74080625  0.43508128     0.18700
H1552       H  0.16871976  0.76990609  0.60178760     0.14600
C1553       C  0.07868280  0.69516053  0.71135543     0.30000
C1554       C  0.07876152  0.67575065  0.69753469    -0.36300
C1555       C  0.06340638  0.66989584  0.66956634     0.16000
C1556       C  0.04883972  0.68223050  0.65627762     0.21800
C1557       C  0.04871574  0.70170598  0.67028214    -0.34400
C1558       C  0.06420631  0.70762047  0.69811646     0.15900
O1559       O  0.09234626  0.70386321  0.73505445    -0.26500
C1560       C  0.08664795  0.72216756  0.73714193     0.05700
C1561       C  0.06918640  0.72540989  0.71487053    -0.31300
O1562       O  0.03638180  0.67378360  0.62838641    -0.23200
C1563       C  0.04312756  0.65585579  0.62386537    -0.03200
C1564       C  0.05990236  0.65263861  0.64868354    -0.17600
H1565       H  0.09030924  0.66603004  0.70685362     0.20400
H1566       H  0.03764641  0.71164576  0.65922825     0.18800
H1567       H  0.06176020  0.73898328  0.71001489     0.18700
H1568       H  0.06854244  0.63963833  0.65005249     0.14600
C1569       C  0.09173276  0.86231093  0.94974022     0.30000
C1570       C  0.10511762  0.84714271  0.94996603    -0.36300
C1571       C  0.11339691  0.84224566  0.90787029     0.16000
C1572       C  0.10902171  0.85176144  0.86804151     0.21800
C1573       C  0.09595512  0.86736901  0.86806166    -0.34400
C1574       C  0.08746074  0.87216814  0.91031593     0.15900
O1575       O  0.07986729  0.86661346  0.98336819    -0.26500
C1576       C  0.06796698  0.87969942  0.96602745     0.05700
C1577       C  0.07200432  0.88379814  0.92058458    -0.31300
O1578       O  0.11551039  0.84245338  0.83151717    -0.23200
C1579       C  0.12414228  0.82682767  0.84820840    -0.03200
C1580       C  0.12336063  0.82610986  0.89555065    -0.17600
H1581       H  0.10753504  0.83856779  0.98009535     0.20400
H1582       H  0.09141404  0.87411617  0.83672478     0.18800
H1583       H  0.06339542  0.89218789  0.89719996     0.18700
H1584       H  0.12719332  0.81410445  0.91714993     0.14600
C1585       C  0.25594160  0.73806847  0.76735915     0.30000
C1586       C  0.23835761  0.73524734  0.79021869    -0.36300
C1587       C  0.22405428  0.74934798  0.78348975     0.16000
C1588       C  0.22663598  0.76513182  0.75583960     0.21800
C1589       C  0.24422277  0.76788575  0.73263196    -0.34400
C1590       C  0.25857633  0.75376016  0.73941457     0.15900
O1591       O  0.27174079  0.72745202  0.77154640    -0.26500
C1592       C  0.28471478  0.73630571  0.74550024     0.05700
C1593       C  0.27719027  0.75265589  0.72436510    -0.31300
O1594       O  0.21067419  0.77560492  0.75168484    -0.23200
C1595       C  0.19773215  0.76649607  0.77748680    -0.03200
C1596       C  0.20541607  0.75011606  0.79799495    -0.17600
H1597       H  0.23600111  0.72293618  0.81198022     0.20400
H1598       H  0.24652564  0.78010795  0.71056663     0.18800
H1599       H  0.28481925  0.76312012  0.70391068     0.18700
H1600       H  0.19776486  0.73926251  0.81725539     0.14600
C1601       C  0.57610170  0.31503427  0.09965582     0.30000
C1602       C  0.57300408  0.32599432  0.06025033    -0.36300
C1603       C  0.55359794  0.32909205  0.04821462     0.16000
C1604       C  0.53833768  0.32162180  0.07274686     0.21800
C1605       C  0.54144535  0.31064263  0.11188383    -0.34400
C1606       C  0.56075965  0.30790827  0.12442547     0.15900
O1607       O  0.59296037  0.31113530  0.11867345    -0.26500
C1608       C  0.58821382  0.30167192  0.15637923     0.05700
C1609       C  0.56841470  0.29927740  0.16163144    -0.31300
O1610       O  0.52142968  0.32773556  0.05816742    -0.23200
C1611       C  0.52584347  0.33940128  0.02404640    -0.03200
C1612       C  0.54564185  0.34072991  0.01608714    -0.17600
H1613       H  0.58482970  0.33231680  0.04144353     0.20400
H1614       H  0.52959685  0.30536423  0.13235622     0.18800
H1615       H  0.56078592  0.29221940  0.18904832     0.18700
H1616       H  0.55309754  0.35005896  0.99248687     0.14600
C1617       C  0.49392220  0.40348169  0.21111566     0.30000
C1618       C  0.48634788  0.41157544  0.25123342    -0.36300
C1619       C  0.48829037  0.40046641  0.29051900     0.16000
C1620       C  0.49710950  0.38260633  0.29037620     0.21800
C1621       C  0.50497464  0.37460566  0.25025232    -0.34400
C1622       C  0.50307981  0.38578050  0.21081960     0.15900
O1623       O  0.49182715  0.41054409  0.17002041    -0.26500
C1624       C  0.49995113  0.39741605  0.14284816     0.05700
C1625       C  0.50743448  0.38171879  0.16629527    -0.31300
O1626       O  0.49732622  0.37477911  0.33114679    -0.23200
C1627       C  0.48857413  0.38782157  0.35763607    -0.03200
C1628       C  0.48264607  0.40411459  0.33420069    -0.17600
H1629       H  0.47899396  0.42534992  0.25151866     0.20400
H1630       H  0.51176426  0.36053673  0.24968323     0.18800
H1631       H  0.51338675  0.36848557  0.15226497     0.18700
H1632       H  0.47575436  0.41697809  0.34765009     0.14600
C1633       C  0.49262351  0.38338051  0.78729488     0.30000
C1634       C  0.48632318  0.37560450  0.74557017    -0.36300
C1635       C  0.48767816  0.38787003  0.70810177     0.16000
C1636       C  0.49517472  0.40632628  0.71127691     0.21800
C1637       C  0.50140100  0.41413499  0.75305713    -0.34400
C1638       C  0.49973878  0.40197790  0.79070552     0.15900
O1639       O  0.49185785  0.37474914  0.82696219    -0.26500
C1640       C  0.49854208  0.38796849  0.85616132     0.05700
C1641       C  0.50370089  0.40521677  0.83560773    -0.31300
O1642       O  0.49638770  0.41473463  0.67136675    -0.23200
C1643       C  0.48910301  0.40168649  0.64256810    -0.03200
C1644       C  0.48339357  0.38470157  0.66341791    -0.17600
H1645       H  0.48065530  0.36107494  0.74260785     0.20400
H1646       H  0.50717732  0.42861766  0.75595336     0.18800
H1647       H  0.50884274  0.41840314  0.85162463     0.18700
H1648       H  0.47831508  0.37146336  0.64746875     0.14600
C1649       C  0.43361691  0.32023098  0.11635272     0.30000
C1650       C  0.42900529  0.30069361  0.12202121    -0.36300
C1651       C  0.41790225  0.29628031  0.16042723     0.16000
C1652       C  0.41149641  0.31017221  0.19091322     0.21800
C1653       C  0.41657594  0.32970988  0.18592474    -0.34400
C1654       C  0.42788549  0.33410835  0.14762840     0.15900
O1655       O  0.44289888  0.32760306  0.08143492    -0.26500
C1656       C  0.44338755  0.34644467  0.09055564     0.05700
C1657       C  0.43439664  0.35136885  0.13150525    -0.31300
O1658       O  0.39951787  0.30304283  0.22148276    -0.23200
C1659       C  0.39859619  0.28430915  0.21085634    -0.03200
C1660       C  0.40989019  0.27926692  0.17347691    -0.17600
H1661       H  0.43324925  0.28976786  0.09736149     0.20400
H1662       H  0.41149883  0.34077481  0.20929623     0.18800
H1663       H  0.43241690  0.36560091  0.14634183     0.18700
H1664       H  0.41086903  0.26536867  0.15639312     0.14600
C1665       C  0.44461660  0.67491486  0.93298890     0.30000
C1666       C  0.43983403  0.69211119  0.91057970    -0.36300
C1667       C  0.42113976  0.69302808  0.89181846     0.16000
C1668       C  0.40798904  0.67809410  0.89483355     0.21800
C1669       C  0.41265496  0.66103074  0.91783484    -0.34400
C1670       C  0.43132437  0.66013170  0.93659839     0.15900
O1671       O  0.46172368  0.67033158  0.95007757    -0.26500
C1672       C  0.45925391  0.65242156  0.96519439     0.05700
C1673       C  0.44059646  0.64545368  0.95786138    -0.31300
O1674       O  0.39181049  0.68155623  0.87226398    -0.23200
C1675       C  0.39458882  0.69900465  0.85468409    -0.03200
C1676       C  0.41255873  0.70682491  0.86594003    -0.17600
H1677       H  0.45016642  0.70371430  0.90671678     0.20400
H1678       H  0.40265230  0.64904488  0.91974687     0.18800
H1679       H  0.43497340  0.63121639  0.96509539     0.18700
H1680       H  0.41869718  0.72040283  0.85507826     0.14600
C1681       C  0.48326855  0.61639321  0.69566713     0.30000
C1682       C  0.47503733  0.62017525  0.73848275    -0.36300
C1683       C  0.48425520  0.61168374  0.77575825     0.16000
C1684       C  0.50059274  0.60041573  0.77127740     0.21800
C1685       C  0.50892160  0.59672205  0.72838353    -0.34400
C1686       C  0.49958403  0.60510030  0.69096914     0.15900
O1687       O  0.47634678  0.62205895  0.65622712    -0.26500
C1688       C  0.48833815  0.61434833  0.62570485     0.05700
C1689       C  0.50317283  0.60368499  0.64527608    -0.31300
O1690       O  0.50691404  0.59409506  0.81083374    -0.23200
C1691       C  0.49437481  0.60129094  0.84092978    -0.03200
C1692       C  0.47996489  0.61236552  0.82105164    -0.17600
H1693       H  0.46215206  0.62887580  0.74235307     0.20400
H1694       H  0.52162502  0.58777525  0.72443579     0.18800
H1695       H  0.51441057  0.59549103  0.62829922     0.18700
H1696       H  0.46835938  0.62017668  0.83768282     0.14600
C1697       C  0.49375811  0.60295321  0.19843742     0.30000
C1698       C  0.50074879  0.60802181  0.24187017    -0.36300
C1699       C  0.49347274  0.59724999  0.27826053     0.16000
C1700       C  0.47987620  0.58282623  0.27244705     0.21800
C1701       C  0.47325180  0.57744157  0.22883577    -0.34400
C1702       C  0.48082277  0.58795972  0.19231102     0.15900
O1703       O  0.49809863  0.61154502  0.15991800    -0.26500
C1704       C  0.48803435  0.60177343  0.12859098     0.05700
C1705       C  0.47713006  0.58681921  0.14663905    -0.31300
O1706       O  0.47303937  0.57656099  0.31159368    -0.23200
C1707       C  0.48289677  0.58659454  0.34282006    -0.03200
C1708       C  0.49583687  0.59963956  0.32404624    -0.17600
H1709       H  0.51073414  0.61988015  0.24705295     0.20400
H1710       H  0.46246398  0.56630487  0.22387879     0.18800
H1711       H  0.46768463  0.57682202  0.12881628     0.18700
H1712       H  0.50408348  0.61076176  0.34155661     0.14600
C1713       C  0.55489887  0.67185885  0.85719390     0.30000
C1714       C  0.56054636  0.67879475  0.81418985    -0.36300
C1715       C  0.56905015  0.69729571  0.81393620     0.16000
C1716       C  0.57182031  0.70802397  0.85338980     0.21800
C1717       C  0.56576485  0.70135554  0.89583332    -0.34400
C1718       C  0.55736645  0.68302507  0.89602156     0.15900
O1719       O  0.54744781  0.65468892  0.86628048    -0.26500
C1720       C  0.54512544  0.65512334  0.91144831     0.05700
C1721       C  0.55104812  0.67239626  0.93145827    -0.31300
O1722       O  0.58217318  0.72364745  0.84678292    -0.23200
C1723       C  0.58587893  0.72329477  0.80239906    -0.03200
C1724       C  0.57791484  0.70735975  0.77985965    -0.17600
H1725       H  0.55907102  0.67013220  0.78344667     0.20400
H1726       H  0.56822729  0.70955714  0.92693689     0.18800
H1727       H  0.55083965  0.67647988  0.96720504     0.18700
H1728       H  0.57994661  0.70294356  0.74467596     0.14600
C1729       C  0.50240203  0.47883258  0.99973118     0.30000
C1730       C  0.51688345  0.49314393  0.00307914    -0.36300
C1731       C  0.51070074  0.51240287  0.99929692     0.16000
C1732       C  0.49153602  0.51704666  0.99284468     0.21800
C1733       C  0.47705806  0.50277336  0.98991978    -0.34400
C1734       C  0.48324860  0.48355453  0.99341355     0.15900
O1735       O  0.50503574  0.46001889  0.00193106    -0.26500
C1736       C  0.48739490  0.45245450  0.99682935     0.05700
C1737       C  0.47318741  0.46646708  0.99141850    -0.31300
O1738       O  0.48892889  0.53572789  0.98810303    -0.23200
C1739       C  0.50657229  0.54341202  0.99155140    -0.03200
C1740       C  0.52080328  0.52954656  0.99887406    -0.17600
H1741       H  0.53194755  0.48947680  0.00769332     0.20400
H1742       H  0.46203456  0.50642118  0.98450746     0.18800
H1743       H  0.45777957  0.46440051  0.98728579     0.18700
H1744       H  0.53625191  0.53166903  0.00169638     0.14600
C1745       C  0.64121123  0.76479223  0.06796531     0.30000
C1746       C  0.64539606  0.77784328  0.03289952    -0.36300
C1747       C  0.64734174  0.76979826  0.98883243     0.16000
C1748       C  0.64560746  0.75025745  0.97980029     0.21800
C1749       C  0.64161950  0.73724439  0.01481007    -0.34400
C1750       C  0.63933607  0.74530404  0.05854335     0.15900
O1751       O  0.63752604  0.76911740  0.11129925    -0.26500
C1752       C  0.63297472  0.75212617  0.12935736     0.05700
C1753       C  0.63395948  0.73691943  0.09805175    -0.31300
O1754       O  0.64617191  0.74607660  0.93571632    -0.23200
C1755       C  0.64823493  0.76317937  0.91610452    -0.03200
C1756       C  0.64913494  0.77840742  0.94755896    -0.17600
H1757       H  0.64623934  0.79324750  0.03913256     0.20400
H1758       H  0.63951646  0.72199101  0.00809450     0.18800
H1759       H  0.63084358  0.72179599  0.10359241     0.18700
H1760       H  0.64966625  0.79373180  0.94073823     0.14600
C1761       C  0.63930115  0.75473247  0.56008679     0.30000
C1762       C  0.64139562  0.76419267  0.51832424    -0.36300
C1763       C  0.64642920  0.75255805  0.48092214     0.16000
C1764       C  0.64896950  0.73287082  0.48436227     0.21800
C1765       C  0.64729043  0.72342974  0.52653301    -0.34400
C1766       C  0.64241388  0.73515272  0.56419299     0.15900
O1767       O  0.63367882  0.76281877  0.59850348    -0.26500
C1768       C  0.63333040  0.74840837  0.62813350     0.05700
C1769       C  0.63877153  0.73075849  0.60890816    -0.31300
O1770       O  0.65127454  0.72451146  0.44413879    -0.23200
C1771       C  0.65055398  0.73905260  0.41468231    -0.03200
C1772       C  0.64774263  0.75688844  0.43573032    -0.17600
H1773       H  0.63862853  0.77949510  0.51496599     0.20400
H1774       H  0.64894249  0.70794935  0.52940822     0.18800
H1775       H  0.63941672  0.71678763  0.62505356     0.18700
H1776       H  0.64517741  0.77068301  0.41977732     0.14600
C1777       C  0.57844469  0.79636459  0.36381012     0.30000
C1778       C  0.57520665  0.80510170  0.40626219    -0.36300
C1779       C  0.56356383  0.82154564  0.40620417     0.16000
C1780       C  0.55560196  0.82912190  0.36710632     0.21800
C1781       C  0.55862743  0.82011357  0.32429829    -0.34400
C1782       C  0.57026889  0.80339733  0.32434647     0.15900
O1783       O  0.58996802  0.78163856  0.35632322    -0.26500
C1784       C  0.58908512  0.77876325  0.31154503     0.05700
C1785       C  0.57690376  0.79175462  0.28958557    -0.31300
O1786       O  0.54518392  0.84480081  0.37570789    -0.23200
C1787       C  0.54652543  0.84701687  0.42089109    -0.03200
C1788       C  0.55775976  0.83294270  0.44137314    -0.17600
H1789       H  0.58160362  0.79960020  0.43722918     0.20400
H1790       H  0.55251427  0.82581164  0.29322342     0.18800
H1791       H  0.57437613  0.79320501  0.25334233     0.18700
H1792       H  0.56092320  0.83120407  0.47727591     0.14600
C1793       C  0.60512441  0.64844383  0.16923374     0.30000
C1794       C  0.59052249  0.63434711  0.16944659    -0.36300
C1795       C  0.58367016  0.62813651  0.12671022     0.16000
C1796       C  0.59096603  0.63501769  0.08623852     0.21800
C1797       C  0.60580514  0.64900395  0.08600811    -0.34400
C1798       C  0.61247465  0.65547427  0.12895369     0.15900
O1799       O  0.61076011  0.65864435  0.20502486    -0.26500
C1800       C  0.62213226  0.67232530  0.18810190     0.05700
C1801       C  0.62374132  0.67106049  0.14076270    -0.31300
O1802       O  0.58060483  0.62929150  0.05060264    -0.23200
C1803       C  0.56645216  0.61865758  0.06842320    -0.03200
C1804       C  0.56766363  0.61753155  0.11569312    -0.17600
H1805       H  0.58380027  0.62976570  0.20086605     0.20400
H1806       H  0.61069551  0.65550364  0.05466603     0.18800
H1807       H  0.62999610  0.68158776  0.11807747     0.18700
H1808       H  0.55717248  0.61143596  0.13885623     0.14600
C1809       C  0.56219015  0.68768789  0.38702667     0.30000
C1810       C  0.54385817  0.68847271  0.40742431    -0.36300
C1811       C  0.53672396  0.67093095  0.42405798     0.16000
C1812       C  0.54685825  0.65382041  0.42028605     0.21800
C1813       C  0.56531113  0.65312721  0.40087527    -0.34400
C1814       C  0.57250718  0.67065142  0.38474564     0.15900
O1815       O  0.57101610  0.70193181  0.36598924    -0.26500
C1816       C  0.58724229  0.69389502  0.35061200     0.05700
C1817       C  0.58902622  0.67452996  0.36165152    -0.31300
O1818       O  0.53696172  0.63890762  0.43495926    -0.23200
C1819       C  0.52041598  0.64657185  0.44915480    -0.03200
C1820       C  0.51942004  0.66645493  0.44345117    -0.17600
H1821       H  0.53551976  0.70166964  0.40895402     0.20400
H1822       H  0.57324865  0.63974829  0.39733056     0.18800
H1823       H  0.60029563  0.66452068  0.35171003     0.18700
H1824       H  0.50740293  0.67599736  0.45063809     0.14600
C1825       C  0.91992603  0.66954095  0.15602533     0.30000
C1826       C  0.90731722  0.67297637  0.19261509    -0.36300
C1827       C  0.90359664  0.69243500  0.20300761     0.16000
C1828       C  0.91188963  0.70750115  0.17948648     0.21800
C1829       C  0.92435949  0.70406705  0.14268456    -0.34400
C1830       C  0.92785339  0.68462583  0.13188916     0.15900
O1831       O  0.92513725  0.65248801  0.13974783    -0.26500
C1832       C  0.93630571  0.65678330  0.10437954     0.05700
C1833       C  0.93846166  0.67652414  0.09783104    -0.31300
O1834       O  0.90579591  0.72453858  0.19384663    -0.23200
C1835       C  0.89336394  0.72031519  0.22681354    -0.03200
C1836       C  0.89136494  0.70057892  0.23389245    -0.17600
H1837       H  0.90058747  0.66131312  0.21108706     0.20400
H1838       H  0.93055273  0.71572276  0.12318963     0.18800
H1839       H  0.94671407  0.68380698  0.07178266     0.18700
H1840       H  0.88170658  0.69330820  0.25713686     0.14600
C1841       C  0.84673103  0.75185709  0.46776308     0.30000
C1842       C  0.85283838  0.75862314  0.51068326    -0.36300
C1843       C  0.84099329  0.75380393  0.54762319     0.16000
C1844       C  0.82455138  0.74266278  0.54283243     0.21800
C1845       C  0.81828674  0.73614972  0.49975397    -0.34400
C1846       C  0.82993460  0.74128604  0.46265133     0.15900
O1847       O  0.85556679  0.75477280  0.42868800    -0.26500
C1848       C  0.84421210  0.74614598  0.39798838     0.05700
C1849       C  0.82799867  0.73752517  0.41708953    -0.31300
O1850       O  0.81710210  0.73776670  0.58247281    -0.23200
C1851       C  0.82851299  0.74643344  0.61299249    -0.03200
C1852       C  0.84360732  0.75662341  0.59321522    -0.17600
H1853       H  0.86605076  0.76680766  0.51504469     0.20400
H1854       H  0.80549550  0.72730846  0.49559654     0.18800
H1855       H  0.81638780  0.72990795  0.39986839     0.18700
H1856       H  0.85594024  0.76317554  0.61009372     0.14600
C1857       C  0.85608925  0.74277265  0.96386212     0.30000
C1858       C  0.85866885  0.73336370  0.00564566    -0.36300
C1859       C  0.84989207  0.74208997  0.04369337     0.16000
C1860       C  0.83936803  0.75894832  0.04075912     0.21800
C1861       C  0.83674493  0.76832205  0.99896148    -0.34400
C1862       C  0.84549793  0.75958570  0.96091771     0.15900
O1863       O  0.86250567  0.73681456  0.92384817    -0.26500
C1864       C  0.85597278  0.74996928  0.89482181     0.05700
C1865       C  0.84531267  0.76452048  0.91598968    -0.31300
O1866       O  0.83313428  0.76504377  0.08081977    -0.23200
C1867       C  0.83965580  0.75190201  0.10986778    -0.03200
C1868       C  0.85013336  0.73721682  0.08866999    -0.17600
H1869       H  0.86693709  0.72016173  0.00828176     0.20400
H1870       H  0.82852491  0.78154942  0.99634258     0.18800
H1871       H  0.83788556  0.77650370  0.90034005     0.18700
H1872       H  0.85759498  0.72525833  0.10436386     0.14600
C1873       C  0.91054801  0.81675258  0.12725857     0.30000
C1874       C  0.91983374  0.81978378  0.08523522    -0.36300
C1875       C  0.93437970  0.83400110  0.08518866     0.16000
C1876       C  0.93903468  0.84472734  0.12362745     0.21800
C1877       C  0.93009917  0.84144780  0.16558906    -0.34400
C1878       C  0.91597462  0.82701528  0.16581396     0.15900
O1879       O  0.89644364  0.80434973  0.13549651    -0.26500
C1880       C  0.89319603  0.80658601  0.18002640     0.05700
C1881       C  0.90506270  0.82032029  0.20055801    -0.31300
O1882       O  0.95247076  0.85770070  0.11592451    -0.23200
C1883       C  0.95687110  0.85509361  0.07221030    -0.03200
C1884       C  0.94619482  0.84045452  0.05119402    -0.17600
H1885       H  0.91601712  0.81164432  0.05482740     0.20400
H1886       H  0.93391881  0.84959124  0.19601325     0.18800
H1887       H  0.90547953  0.82482555  0.23599556     0.18700
H1888       H  0.94676040  0.83563214  0.01599580     0.14600
C1889       C  0.75459597  0.76583209  0.25729807     0.30000
C1890       C  0.73611683  0.76921142  0.23927079    -0.36300
C1891       C  0.72208584  0.75502382  0.24800291     0.16000
C1892       C  0.72572877  0.73874143  0.27335192     0.21800
C1893       C  0.74416092  0.73542372  0.29163975    -0.34400
C1894       C  0.75824310  0.74951695  0.28256834     0.15900
O1895       O  0.77044191  0.77594429  0.24885588    -0.26500
C1896       C  0.78438951  0.76601514  0.26933860     0.05700
C1897       C  0.77752811  0.74955436  0.29096038    -0.31300
O1898       O  0.71023840  0.72769839  0.27835164    -0.23200
C1899       C  0.69653434  0.73694686  0.25532835    -0.03200
C1900       C  0.70320148  0.75396822  0.23569254    -0.17600
H1901       H  0.73302278  0.78172791  0.21869579     0.20400
H1902       H  0.74741960  0.72256493  0.31085108     0.18800
H1903       H  0.78591080  0.73819194  0.30656582     0.18700
H1904       H  0.69498919  0.76462499  0.21711257     0.14600
C1905       C  0.34043102  0.26037503  0.45357522     0.30000
C1906       C  0.32767091  0.26243241  0.49040156    -0.36300
C1907       C  0.33451077  0.25591371  0.53259067     0.16000
C1908       C  0.35253411  0.24770806  0.53815862     0.21800
C1909       C  0.36526034  0.24564551  0.50133763    -0.34400
C1910       C  0.35855264  0.25244500  0.45936753     0.15900
O1911       O  0.33700949  0.26521143  0.41089702    -0.26500
C1912       C  0.35328079  0.26053280  0.38936019     0.05700
C1913       C  0.36718429  0.25262523  0.41787851    -0.31300
O1914       O  0.35657301  0.24409807  0.58120320    -0.23200
C1915       C  0.34097942  0.25016423  0.60349099    -0.03200
C1916       C  0.32676466  0.25756155  0.57497433    -0.17600
H1917       H  0.31359044  0.26899400  0.48663838     0.20400
H1918       H  0.37958377  0.23965338  0.50537232     0.18800
H1919       H  0.38124667  0.24693747  0.40884308     0.18700
H1920       H  0.31336294  0.26454404  0.58452537     0.14600
C1921       C  0.33813114  0.24790564  0.95383021     0.30000
C1922       C  0.32556957  0.24387369  0.99009128    -0.36300
C1923       C  0.33138889  0.25070550  0.03325138     0.16000
C1924       C  0.34822834  0.26105481  0.04017349     0.21800
C1925       C  0.36077819  0.26504427  0.00401539    -0.34400
C1926       C  0.35514246  0.25791186  0.96112265     0.15900
O1927       O  0.33566773  0.24288770  0.91057837    -0.26500
C1928       C  0.35150530  0.24950002  0.89024970     0.05700
C1929       C  0.36409586  0.25892302  0.92008941    -0.31300
O1930       O  0.35145105  0.26501140  0.08359526    -0.23200
C1931       C  0.33655727  0.25699605  0.10488010    -0.03200
C1932       C  0.32359490  0.24791648  0.07528482    -0.17600
H1933       H  0.31241930  0.23565370  0.98518697     0.20400
H1934       H  0.37424681  0.27271860  0.00916859     0.18800
H1935       H  0.37761304  0.26604894  0.91231003     0.18700
H1936       H  0.31093929  0.23950233  0.08378318     0.14600
C1937       C  0.41653531  0.20810185  0.66670211     0.30000
C1938       C  0.42757125  0.20435503  0.62748668    -0.36300
C1939       C  0.43055023  0.18481304  0.61651497     0.16000
C1940       C  0.42348262  0.16993054  0.64268953     0.21800
C1941       C  0.41244018  0.17366822  0.68189242    -0.34400
C1942       C  0.40921629  0.19321168  0.69248671     0.15900
O1943       O  0.41058289  0.22522841  0.68102253    -0.26500
C1944       C  0.39921289  0.22123994  0.71626987     0.05700
C1945       C  0.39788942  0.20156255  0.72500852    -0.31300
O1946       O  0.42787139  0.15274004  0.62579288    -0.23200
C1947       C  0.43770149  0.15669237  0.58803383    -0.03200
C1948       C  0.43975411  0.17640029  0.58051444    -0.17600
H1949       H  0.43293856  0.21585613  0.60621303     0.20400
H1950       H  0.40634673  0.16215721  0.70199740     0.18800
H1951       H  0.38891894  0.19441201  0.74990304     0.18700
H1952       H  0.44708846  0.18347355  0.55267404     0.14600
C1953       C  0.37244309  0.34226150  0.87912644     0.30000
C1954       C  0.37977245  0.34824420  0.92171825    -0.36300
C1955       C  0.39405755  0.36269369  0.92103015     0.16000
C1956       C  0.40098494  0.37042403  0.88103141     0.21800
C1957       C  0.39289873  0.36520009  0.83867555    -0.34400
C1958       C  0.37833041  0.35104671  0.83943389     0.15900
O1959       O  0.36230001  0.32638266  0.87115865    -0.26500
C1960       C  0.36104792  0.32535659  0.82584552     0.05700
C1961       C  0.37050173  0.34052435  0.80447995    -0.31300
O1962       O  0.41713989  0.38035111  0.88726033    -0.23200
C1963       C  0.42019511  0.37965783  0.93208424    -0.03200
C1964       C  0.40616001  0.36901133  0.95475646    -0.17600
H1965       H  0.37590543  0.34091560  0.95285731     0.20400
H1966       H  0.39875694  0.37051247  0.80696416     0.18800
H1967       H  0.37375889  0.34180278  0.76852089     0.18700
H1968       H  0.40644013  0.36432552  0.98988740     0.14600
C1969       C  0.40876456  0.31934202  0.60884411     0.30000
C1970       C  0.41242969  0.33046292  0.56991975    -0.36300
C1971       C  0.43196156  0.33455398  0.56073941     0.16000
C1972       C  0.44692450  0.32798444  0.58759643     0.21800
C1973       C  0.44325963  0.31698866  0.62664255    -0.34400
C1974       C  0.42373941  0.31312304  0.63613080     0.15900
O1975       O  0.39159145  0.31411413  0.62446121    -0.26500
C1976       C  0.39565797  0.30462005  0.66259020     0.05700
C1977       C  0.41542113  0.30363138  0.67144985    -0.31300
O1978       O  0.46401935  0.33413080  0.57368436    -0.23200
C1979       C  0.45997674  0.34487876  0.53749515    -0.03200
C1980       C  0.44024794  0.34568451  0.52801620    -0.17600
H1981       H  0.40085639  0.33585637  0.54874956     0.20400
H1982       H  0.45479910  0.31213002  0.64865792     0.18800
H1983       H  0.42261212  0.29683972  0.69990674     0.18700
H1984       H  0.43302232  0.35390264  0.50184434     0.14600
C1985       C  0.13202606  0.25292062  0.99579415     0.30000
C1986       C  0.11993784  0.25849410  0.03179760    -0.36300
C1987       C  0.12517933  0.25181872  0.07496324     0.16000
C1988       C  0.14142404  0.24075308  0.08263083     0.21800
C1989       C  0.15343804  0.23496827  0.04643667    -0.34400
C1990       C  0.14799182  0.24139125  0.00298779     0.15900
O1991       O  0.12930418  0.25685922  0.95241467    -0.26500
C1992       C  0.14361051  0.24762261  0.93138970     0.05700
C1993       C  0.15568401  0.23770470  0.96107713    -0.31300
O1994       O  0.14395648  0.23692813  0.12628990    -0.23200
C1995       C  0.12890002  0.24537366  0.14642791    -0.03200
C1996       C  0.11673506  0.25474160  0.11612839    -0.17600
H1997       H  0.10721526  0.26725775  0.02645720     0.20400
H1998       H  0.16603817  0.22604172  0.05171076     0.18800
H1999       H  0.16786055  0.22854589  0.95276758     0.18700
H2000       H  0.10399780  0.26324940  0.12369664     0.14600
C2001       C  0.13254303  0.24613323  0.49666534     0.30000
C2002       C  0.12047128  0.24191654  0.53342452    -0.36300
C2003       C  0.12671608  0.24873179  0.57601100     0.16000
C2004       C  0.14387612  0.25859537  0.58249786     0.21800
C2005       C  0.15594625  0.26289692  0.54561332    -0.34400
C2006       C  0.14949725  0.25640862  0.50274974     0.15900
O2007       O  0.12864736  0.24261234  0.45343933    -0.26500
C2008       C  0.14320044  0.25086322  0.43154482     0.05700
C2009       C  0.15664374  0.25962322  0.46039730    -0.31300
O2010       O  0.14702675  0.26308189  0.62574224    -0.23200
C2011       C  0.13146343  0.25628874  0.64675489    -0.03200
C2012       C  0.11835280  0.24731980  0.61748562    -0.17600
H2013       H  0.10691929  0.23432651  0.52896950     0.20400
H2014       H  0.16918100  0.27103539  0.54987646     0.18800
H2015       H  0.16911669  0.26819253  0.45129732     0.18700
H2016       H  0.10497566  0.24007115  0.62591834     0.14600
C2017       C  0.07775518  0.30924098  0.84536209     0.30000
C2018       C  0.07773502  0.32878325  0.85817362    -0.36300
C2019       C  0.06261614  0.33469421  0.88665524     0.16000
C2020       C  0.04830879  0.32228766  0.90113051     0.21800
C2021       C  0.04819935  0.30270997  0.88782721    -0.34400
C2022       C  0.06352089  0.29671173  0.85967633     0.15900
O2023       O  0.09141380  0.30048392  0.82196319    -0.26500
C2024       C  0.08598663  0.28206372  0.82104101     0.05700
C2025       C  0.06865995  0.27879092  0.84383784    -0.31300
O2026       O  0.03631903  0.33066998  0.93011293    -0.23200
C2027       C  0.04313494  0.34860296  0.93432292    -0.03200
C2028       C  0.05942151  0.35194817  0.90790495    -0.17600
H2029       H  0.08916797  0.33852079  0.84812924     0.20400
H2030       H  0.03738239  0.29272471  0.90001706     0.18800
H2031       H  0.06144632  0.26516178  0.84965090     0.18700
H2032       H  0.06806322  0.36495434  0.90606232     0.14600
C2033       C  0.07634645  0.18085589  0.91921633     0.30000
C2034       C  0.07262525  0.16804214  0.95494943    -0.36300
C2035       C  0.05306606  0.16515038  0.96568907     0.16000
C2036       C  0.03820246  0.17441595  0.94331505     0.21800
C2037       C  0.04191484  0.18717245  0.90764649    -0.34400
C2038       C  0.06139871  0.18979818  0.89644128     0.15900
O2039       O  0.09347606  0.18527378  0.90230280    -0.26500
C2040       C  0.08929322  0.19697084  0.86794878     0.05700
C2041       C  0.06960068  0.20022153  0.86272210    -0.31300
O2042       O  0.02098927  0.16870771  0.95692645    -0.23200
C2043       C  0.02485196  0.15551834  0.98823371    -0.03200
C2044       C  0.04455473  0.15273558  0.99520204    -0.17600
H2045       H  0.08411034  0.16045346  0.97226321     0.20400
H2046       H  0.03038670  0.19408493  0.88894323     0.18800
H2047       H  0.06239567  0.20902093  0.83757385     0.18700
H2048       H  0.05154138  0.14236112  0.01710595     0.14600
C2049       C  0.22317253  0.25528424  0.77193203     0.30000
C2050       C  0.23726268  0.26991960  0.77601089    -0.36300
C2051       C  0.25640154  0.26449529  0.76657824     0.16000
C2052       C  0.26118027  0.24588297  0.75399524     0.21800
C2053       C  0.24706728  0.23123315  0.74979800    -0.34400
C2054       C  0.22789996  0.23666698  0.75926312     0.15900
O2055       O  0.20458587  0.25727557  0.78003252    -0.26500
C2056       C  0.19703719  0.23978531  0.77253040     0.05700
C2057       C  0.21091901  0.22625405  0.75936049    -0.31300
O2058       O  0.27986214  0.24388195  0.74691833    -0.23200
C2059       C  0.28733917  0.26138220  0.75498226    -0.03200
C2060       C  0.27335400  0.27489670  0.76737478    -0.17600
H2061       H  0.23353377  0.28451016  0.78611329     0.20400
H2062       H  0.25081732  0.21660658  0.74003845     0.18800
H2063       H  0.20889471  0.21105864  0.75183559     0.18700
H2064       H  0.27533953  0.29003690  0.77556909     0.14600
C2065       C  0.03750551  0.82778635  0.60384993     0.30000
C2066       C  0.04130667  0.81527004  0.64014101    -0.36300
C2067       C  0.06087643  0.81184422  0.64985949     0.16000
C2068       C  0.07579925  0.81986358  0.62520995     0.21800
C2069       C  0.07198504  0.83242231  0.58888664    -0.34400
C2070       C  0.05237809  0.83612305  0.57963139     0.15900
O2071       O  0.02028963  0.83384382  0.59064402    -0.26500
C2072       C  0.02413941  0.84633372  0.55762407     0.05700
C2073       C  0.04387626  0.84837828  0.54950933    -0.31300
O2074       O  0.09302598  0.81529333  0.64165024    -0.23200
C2075       C  0.08900370  0.80443402  0.67768630    -0.03200
C2076       C  0.06925475  0.80177973  0.68418889    -0.17600
H2077       H  0.02981329  0.80911350  0.66034948     0.20400
H2078       H  0.08349480  0.83930799  0.57008170     0.18800
H2079       H  0.05093441  0.85797968  0.52583272     0.18700
H2080       H  0.06211333  0.79393910  0.71112597     0.14600
C2081       C  0.99530249  0.88568856  0.81901115     0.30000
C2082       C  0.00409422  0.88082268  0.77743062    -0.36300
C2083       C  0.99655136  0.88978073  0.73877048     0.16000
C2084       C  0.98126624  0.90253582  0.74083914     0.21800
C2085       C  0.97245701  0.90744257  0.78259643    -0.34400
C2086       C  0.98008772  0.89851831  0.82146399     0.15900
O2087       O  0.00060963  0.87946318  0.85926791    -0.26500
C2088       C  0.98868584  0.88829630  0.88823763     0.05700
C2089       C  0.97549647  0.90036061  0.86672457    -0.31300
O2090       O  0.97612569  0.90865769  0.70017455    -0.23200
C2091       C  0.98839307  0.89984514  0.67185379    -0.03200
C2092       C  0.00147155  0.88794564  0.69397750    -0.17600
H2093       H  0.01606590  0.87080688  0.77543837     0.20400
H2094       H  0.96050978  0.91748229  0.78459415     0.18800
H2095       H  0.96471311  0.90963518  0.88219618     0.18700
H2096       H  0.01242066  0.87869367  0.67906038     0.14600
C2097       C  0.99883201  0.90962446  0.32391477     0.30000
C2098       C  0.00503802  0.92235024  0.28987012    -0.36300
C2099       C  0.99818670  0.91850839  0.24554576     0.16000
C2100       C  0.98581427  0.90339198  0.23558869     0.21800
C2101       C  0.97961514  0.89069343  0.26957723    -0.34400
C2102       C  0.98680864  0.89427547  0.31359221     0.15900
O2103       O  0.00374004  0.91023619  0.36749828    -0.26500
C2104       C  0.99506298  0.89482485  0.38501603     0.05700
C2105       C  0.98438105  0.88435602  0.35298859    -0.31300
O2106       O  0.98302779  0.90104909  0.19140323    -0.23200
C2107       C  0.99366245  0.91484003  0.17255635    -0.03200
C2108       C  0.00347734  0.92610670  0.20465603    -0.17600
H2109       H  0.01507300  0.93397064  0.29710839     0.20400
H2110       H  0.97054904  0.87834535  0.26182421     0.18800
H2111       H  0.97560538  0.87162882  0.35834983     0.18700
H2112       H  0.01452879  0.93683574  0.19852120     0.14600
C2113       C  0.90205118  0.86920855  0.38771701     0.30000
C2114       C  0.89614904  0.86206767  0.34490558    -0.36300
C2115       C  0.88032738  0.84933490  0.34481755     0.16000
C2116       C  0.87130597  0.84345161  0.38427303     0.21800
C2117       C  0.87657642  0.85137042  0.42686744    -0.34400
C2118       C  0.89205194  0.86457529  0.42682715     0.15900
O2119       O  0.91841614  0.87840765  0.39652986    -0.26500
C2120       C  0.91856019  0.88041251  0.44176472     0.05700
C2121       C  0.90237565  0.87227767  0.46225428    -0.31300
O2122       O  0.85964408  0.82852625  0.37723446    -0.23200
C2123       C  0.86057309  0.82541171  0.33235706    -0.03200
C2124       C  0.87302679  0.83810367  0.31057931    -0.17600
H2125       H  0.90422334  0.86507271  0.31417546     0.20400
H2126       H  0.87004391  0.84649902  0.45824503     0.18800
H2127       H  0.90000471  0.86997493  0.49829328     0.18700
H2128       H  0.87778394  0.83752098  0.27546402     0.14600
C2129       C  0.92724884  0.82117538  0.63284942     0.30000
C2130       C  0.92655660  0.80172027  0.64561473    -0.36300
C2131       C  0.91081016  0.79634087  0.67268306     0.16000
C2132       C  0.89640438  0.80910102  0.68519017     0.21800
C2133       C  0.89724955  0.82865907  0.67298961    -0.34400
C2134       C  0.91331414  0.83416827  0.64694681     0.15900
O2135       O  0.94042981  0.82914285  0.60667675    -0.26500
C2136       C  0.93516626  0.84758182  0.60476553     0.05700
C2137       C  0.91844375  0.85161860  0.62935154    -0.31300
O2138       O  0.88241489  0.80065823  0.70814814    -0.23200
C2139       C  0.88822750  0.78240157  0.71140150    -0.03200
C2140       C  0.90580969  0.77887413  0.69010523    -0.17600
H2141       H  0.93747764  0.79146433  0.63492177     0.20400
H2142       H  0.88609959  0.83882375  0.68282535     0.18800
H2143       H  0.91082519  0.86521766  0.63229558     0.18700
H2144       H  0.91330257  0.76524557  0.68621277     0.14600
C2145       C  0.90776372  0.18493284  0.42012713     0.30000
C2146       C  0.91167236  0.17387437  0.45873044    -0.36300
C2147       C  0.93119464  0.16998666  0.46708973     0.16000
C2148       C  0.94595039  0.17667150  0.43974912     0.21800
C2149       C  0.94203128  0.18771976  0.40099852    -0.34400
C2150       C  0.92245344  0.19139003  0.39228353     0.15900
O2151       O  0.89050106  0.18987109  0.40532642    -0.26500
C2152       C  0.89418857  0.19943175  0.36726161     0.05700
C2153       C  0.91378984  0.20079304  0.35734106    -0.31300
O2154       O  0.96303304  0.17016846  0.45237068    -0.23200
C2155       C  0.95906439  0.15912122  0.48802212    -0.03200
C2156       C  0.93952776  0.15851687  0.49872618    -0.17600
H2157       H  0.90026488  0.16826651  0.48006978     0.20400
H2158       H  0.95337948  0.19260464  0.37850643     0.18800
H2159       H  0.92061497  0.20777675  0.32867473     0.18700
H2160       H  0.93240960  0.14994136  0.52441171     0.14600
C2161       C  0.98874734  0.11460454  0.22826039     0.30000
C2162       C  0.98035016  0.12153782  0.26861072    -0.36300
C2163       C  0.98368622  0.11051960  0.30750347     0.16000
C2164       C  0.99484320  0.09400574  0.30686079     0.21800
C2165       C  0.00297331  0.08685091  0.26624456    -0.34400
C2166       C  0.99939161  0.09775674  0.22713627     0.15900
O2167       O  0.98717814  0.12254544  0.18796697    -0.26500
C2168       C  0.99674289  0.11057865  0.16047532     0.05700
C2169       C  0.00466056  0.09482544  0.18280614    -0.31300
O2170       O  0.99775291  0.08716065  0.34799101    -0.23200
C2171       C  0.98805922  0.09925155  0.37508565    -0.03200
C2172       C  0.97881969  0.11394063  0.35175962    -0.17600
H2173       H  0.97197601  0.13472256  0.26966767     0.20400
H2174       H  0.01173386  0.07392873  0.26537483     0.18800
H2175       H  0.01261299  0.08280165  0.16833834     0.18700
H2176       H  0.97120266  0.12629045  0.36576775     0.14600
C2177       C  0.98748909  0.11785723  0.72991861     0.30000
C2178       C  0.99395387  0.12559229  0.77156049    -0.36300
C2179       C  0.99223860  0.11350407  0.80931366     0.16000
C2180       C  0.98420593  0.09526815  0.80655622     0.21800
C2181       C  0.97787883  0.08746240  0.76478502    -0.34400
C2182       C  0.97992404  0.09943203  0.72682177     0.15900
O2183       O  0.98891357  0.12618515  0.68995706    -0.26500
C2184       C  0.98228745  0.11291746  0.66079875     0.05700
C2185       C  0.97637053  0.09598953  0.68176277    -0.31300
O2186       O  0.98261768  0.08710709  0.84678128    -0.23200
C2187       C  0.99017104  0.10010599  0.87537999    -0.03200
C2188       C  0.99655013  0.11673926  0.85397911    -0.17600
H2189       H  0.00008580  0.13994104  0.77422724     0.20400
H2190       H  0.97180641  0.07309631  0.76209075     0.18800
H2191       H  0.97128830  0.08274902  0.66589611     0.18700
H2192       H  0.00208860  0.12986733  0.86956332     0.14600
C2193       C  0.08099069  0.13346660  0.64431639     0.30000
C2194       C  0.08867008  0.13893568  0.68691817    -0.36300
C2195       C  0.10272219  0.15360910  0.68661004     0.16000
C2196       C  0.10841557  0.16274488  0.64721685     0.21800
C2197       C  0.10137060  0.15668237  0.60440144    -0.34400
C2198       C  0.08772064  0.14161452  0.60459976     0.15900
O2199       O  0.06559372  0.12245978  0.63743461    -0.26500
C2200       C  0.06289689  0.12290205  0.59246838     0.05700
C2201       C  0.07635791  0.13446647  0.57037195    -0.31300
O2202       O  0.11868514  0.17852373  0.65565014    -0.23200
C2203       C  0.12025732  0.17906017  0.70096363    -0.03200
C2204       C  0.11074765  0.16379834  0.72183392    -0.17600
H2205       H  0.08310471  0.13312137  0.71841396     0.20400
H2206       H  0.10522655  0.16409612  0.57336786     0.18800
H2207       H  0.07616697  0.13895173  0.53508405     0.18700
H2208       H  0.10799100  0.16199082  0.75788130     0.14600
C2209       C  0.05458270  0.16829525  0.37865132     0.30000
C2210       C  0.06718002  0.17241465  0.34252398    -0.36300
C2211       C  0.07091831  0.19206499  0.33482360     0.16000
C2212       C  0.06256468  0.20673611  0.36020101     0.21800
C2213       C  0.04984472  0.20262729  0.39602837    -0.34400
C2214       C  0.04644809  0.18298981  0.40435338     0.15900
O2215       O  0.05029433  0.15095154  0.39432949    -0.26500
C2216       C  0.03949425  0.15467815  0.43089424     0.05700
C2217       C  0.03661151  0.17432777  0.43857195    -0.31300
O2218       O  0.06932400  0.22397133  0.34955617    -0.23200
C2219       C  0.08227358  0.22027026  0.31712963    -0.03200
C2220       C  0.08381564  0.20068325  0.30656286    -0.17600
H2221       H  0.07428782  0.16109724  0.32319996     0.20400
H2222       H  0.04377823  0.21391906  0.41739677     0.18800
H2223       H  0.02882452  0.18122627  0.46629078     0.18700
H2224       H  0.09379192  0.19373643  0.28324669     0.14600
C2225       C  0.98382747  0.02079616  0.52696722     0.30000
C2226       C  0.96927792  0.00662737  0.52240809    -0.36300
C2227       C  0.97545981  0.98730765  0.52270678     0.16000
C2228       C  0.99465801  0.98245820  0.52757435     0.21800
C2229       C  0.00918280  0.99661618  0.53224628    -0.34400
C2230       C  0.00302276  0.01591960  0.53171320     0.15900
O2231       O  0.98130386  0.03961051  0.52525101    -0.26500
C2232       C  0.99904926  0.04706445  0.52895552     0.05700
C2233       C  0.01322943  0.03295206  0.53335091    -0.31300
O2234       O  0.99729874  0.96365213  0.52809955    -0.23200
C2235       C  0.97964400  0.95613414  0.52329526    -0.03200
C2236       C  0.96537180  0.97021709  0.51957157    -0.17600
H2237       H  0.95421624  0.01043712  0.51840646     0.20400
H2238       H  0.02426493  0.99280813  0.53579483     0.18800
H2239       H  0.02872834  0.03488704  0.53524900     0.18700
H2240       H  0.94990866  0.96819843  0.51670702     0.14600
loop_ 
_geom_bond_atom_site_label_1 
_geom_bond_atom_site_label_2 
_geom_bond_distance 
_geom_bond_site_symmetry_2 
_ccdc_geom_bond_type 
O1          Cr19   2.004   1_655  S
O1            C9   1.267       .  A
O2          Cr19   1.978       .  S
O2            C3   1.259       .  A
C3            O4   1.269       .  A
C3         C2200   1.473       .  S
O4          Cr20   2.023       .  S
O5          Cr20   2.023       .  S
O5            C6   1.273       .  A
C6            O7   1.260   1_455  A
C6         C2232   1.481   1_455  S
O7          Cr21   1.981       .  S
O8          Cr21   1.976       .  S
O8            C9   1.263       .  A
C9         C2184   1.463       .  S
O10         Cr19   1.988   1_655  S
O10          C18   1.255       .  A
O11         Cr19   1.986       .  S
O11          C12   1.261       .  A
C12          O13   1.264       .  A
C12        C2216   1.472       .  S
O13         Cr20   2.001       .  S
O14         Cr20   2.001       .  S
O14          C15   1.264   1_455  A
C15          O16   1.265       .  A
C15        C2171   1.460       .  S
O16         Cr21   1.986       .  S
O17         Cr21   1.994       .  S
O17          C18   1.257       .  A
C18        C2155   1.462       .  S
Cr19         O22   1.767       .  S
Cr20         O22   1.775       .  S
Cr21         O22   1.769   1_655  S
O23         Cr41   1.982       .  S
O23          C31   1.266       .  A
O24         Cr41   1.977       .  S
O24          C25   1.255       .  A
C25          O26   1.267       .  A
C25        C2235   1.480       .  S
O26         Cr42   2.023       .  S
O27         Cr42   2.013       .  S
O27          C28   1.267       .  A
C28          O29   1.260       .  A
C28        C2120   1.473       .  S
O29         Cr43   1.980       .  S
O30         Cr43   2.011       .  S
O30          C31   1.272       .  A
C31        C2104   1.472       .  S
O32         Cr41   2.000   1_455  S
O32          C40   1.254       .  A
O33         Cr41   1.986       .  S
O33          C34   1.270       .  A
C34          O35   1.271       .  A
C34        C2091   1.467       .  S
O35         Cr42   2.010       .  S
O36         Cr42   1.989       .  S
O36          C37   1.262       .  A
C37          O38   1.260       .  A
C37        C2136   1.467       .  S
O38         Cr43   1.985       .  S
O39         Cr43   2.004       .  S
O39          C40   1.255   1_655  A
C40        C2072   1.477       .  S
Cr41         O44   1.778       .  S
Cr42         O44   1.781       .  S
Cr43         O44   1.771       .  S
O45         Cr63   1.989       .  S
O45          C53   1.264       .  A
O46         Cr63   1.980       .  S
O46          C47   1.259       .  A
C47          O48   1.269       .  A
C47        C2203   1.473       .  S
O48         Cr64   2.021       .  S
O49         Cr64   2.029       .  S
O49          C50   1.271       .  A
C50          O51   1.257       .  A
C50        C2056   1.484       .  S
O51         Cr65   1.980       .  S
O52         Cr65   1.988       .  S
O52          C53   1.265       .  A
C53        C2011   1.461       .  S
O54         Cr63   1.997       .  S
O54          C62   1.258       .  A
O55         Cr63   1.980       .  S
O55          C56   1.260       .  A
C56          O57   1.263       .  A
C56        C2040   1.467       .  S
O57         Cr64   1.995       .  S
O58         Cr64   2.010       .  S
O58          C59   1.269       .  A
C59          O60   1.266       .  A
C59        C1992   1.464       .  S
O60         Cr65   1.982       .  S
O61         Cr65   1.994       .  S
O61          C62   1.258       .  A
C62        C2024   1.469       .  S
Cr63         O66   1.769       .  S
Cr64         O66   1.776       .  S
Cr65         O66   1.768       .  S
O67         Cr85   1.991       .  S
O67          C75   1.265       .  A
O68         Cr85   1.981       .  S
O68          C69   1.258       .  A
C69          O70   1.272       .  A
C69        C2059   1.483       .  S
O70         Cr86   2.028       .  S
O71         Cr86   2.020       .  S
O71          C72   1.269       .  A
C72          O73   1.259       .  A
C72        C1960   1.472       .  S
O73         Cr87   1.978       .  S
O74         Cr87   1.998       .  S
O74          C75   1.267       .  A
C75        C1928   1.469       .  S
O76         Cr85   1.999       .  S
O76          C84   1.257       .  A
O77         Cr85   1.992       .  S
O77          C78   1.267       .  A
C78          O79   1.267       .  A
C78        C1915   1.463       .  S
O79         Cr86   2.002       .  S
O80         Cr86   2.007       .  S
O80          C81   1.265       .  A
C81          O82   1.261       .  A
C81        C1976   1.479       .  S
O82         Cr87   1.988       .  S
O83         Cr87   1.996       .  S
O83          C84   1.257       .  A
C84        C1944   1.470       .  S
Cr85         O88   1.771       .  S
Cr86         O88   1.774       .  S
Cr87         O88   1.767       .  S
O89        Cr107   1.984       .  S
O89          C97   1.264       .  A
O90        Cr107   1.979       .  S
O90          C91   1.260       .  A
C91          O92   1.268       .  A
C91        C1896   1.471       .  S
O92        Cr108   2.012       .  S
O93        Cr108   2.022       .  S
O93          C94   1.269       .  A
C94          O95   1.260       .  A
C94        C2123   1.473       .  S
O95        Cr109   1.981       .  S
O96        Cr109   2.004       .  S
O96          C97   1.267       .  A
C97        C1848   1.468       .  S
O98        Cr107   1.993       .  S
O98         C106   1.258       .  A
O99        Cr107   1.990       .  S
O99         C100   1.265       .  A
C100        O101   1.266       .  A
C100       C1867   1.470       .  S
O101       Cr108   2.005       .  S
O102       Cr108   1.996       .  S
O102        C103   1.262       .  A
C103        O104   1.262       .  A
C103       C1880   1.467       .  S
O104       Cr109   1.996       .  S
O105       Cr109   1.992       .  S
O105        C106   1.258       .  A
C106       C1835   1.465       .  S
Cr107       O110   1.771       .  S
Cr108       O110   1.771       .  S
Cr109       O110   1.765       .  S
O111       Cr129   1.948       .  S
O111        C119   1.258       .  A
O112       Cr129   2.001       .  S
O112        C113   1.263       .  A
C113        O114   1.266       .  A
C113       C1800   1.471       .  S
O114       Cr130   2.005       .  S
O115       Cr130   2.039       .  S
O115        C116   1.269       .  A
C116        O117   1.250       .  A
C116       C1899   1.477       .  S
O117       Cr131   1.949       .  S
O118       Cr131   2.042       .  S
O118        C119   1.276       .  A
C119       C1752   1.476       .  S
O120       Cr129   2.028       .  S
O120        C128   1.261       .  A
O121       Cr129   1.971       .  S
O121        C122   1.263       .  A
C122        O123   1.274       .  A
C122       C1816   1.463       .  S
O123       Cr130   2.022       .  S
O124       Cr130   1.955       .  S
O124        C125   1.256       .  A
C125        O126   1.273       .  A
C125       C1771   1.471       .  S
O126       Cr131   2.029       .  S
O127       Cr131   1.959       .  S
O127        C128   1.248       .  A
C128       C1784   1.468       .  S
Cr129       O132   1.771       .  S
Cr130       O132   1.775       .  S
Cr131       O132   1.763       .  S
O133       Cr151   2.001       .  S
O133        C141   1.268       .  A
O134       Cr151   1.977       .  S
O134        C135   1.259       .  A
C135        O136   1.268       .  A
C135       C1803   1.477       .  S
O136       Cr152   2.028   1_554  S
O137       Cr152   2.032       .  S
O137        C138   1.272       .  A
C138        O139   1.257       .  A
C138       C1739   1.483       .  S
O139       Cr153   1.977       .  S
O140       Cr153   1.984   1_554  S
O140        C141   1.266       .  A
C141       C1704   1.466       .  S
O142       Cr151   2.008   1_556  S
O142        C150   1.260       .  A
O143       Cr151   1.987   1_556  S
O143        C144   1.263       .  A
C144        O145   1.262       .  A
C144       C1720   1.471       .  S
O145       Cr152   1.997       .  S
O146       Cr152   2.009       .  S
O146        C147   1.269       .  A
C147        O148   1.267       .  A
C147       C1691   1.468       .  S
O148       Cr153   1.985       .  S
O149       Cr153   1.988       .  S
O149        C150   1.256       .  A
C150       C1672   1.477       .  S
Cr151       O154   1.768   1_554  S
Cr152       O154   1.777       .  S
Cr153       O154   1.770       .  S
O155       Cr173   1.976       .  S
O155        C163   1.265       .  A
O156       Cr173   1.990   1_554  S
O156        C157   1.260       .  A
C157        O158   1.270   1_554  A
C157       C1736   1.481   1_554  S
O158       Cr174   2.016   1_556  S
O159       Cr174   2.022   1_556  S
O159        C160   1.268       .  A
C160        O161   1.259       .  A
C160       C1963   1.474       .  S
O161       Cr175   1.979       .  S
O162       Cr175   2.004       .  S
O162        C163   1.268       .  A
C163       C1640   1.461       .  S
O164       Cr173   1.997       .  S
O164        C172   1.255   1_556  A
O165       Cr173   1.993   1_554  S
O165        C166   1.267       .  A
C166        O167   1.267       .  A
C166       C1624   1.462       .  S
O167       Cr174   2.002       .  S
O168       Cr174   1.987       .  S
O168        C169   1.261       .  A
C169        O170   1.263       .  A
C169       C1656   1.469       .  S
O170       Cr175   1.994   1_554  S
O171       Cr175   1.988   1_554  S
O171        C172   1.256       .  A
C172       C1611   1.465       .  S
Cr173       O176   1.772   1_556  S
Cr174       O176   1.773       .  S
Cr175       O176   1.768   1_556  S
O177       Cr195   1.995       .  S
O177        C185   1.265       .  A
O178       Cr195   1.963       .  S
O178        C179   1.257       .  A
C179        O180   1.270       .  A
C179       C1579   1.471       .  S
O180       Cr196   2.031       .  S
O181       Cr196   2.019       .  S
O181        C182   1.270       .  A
C182        O183   1.259       .  A
C182       C1595   1.480       .  S
O183       Cr197   1.980       .  S
O184       Cr197   1.988       .  S
O184        C185   1.264       .  A
C185       C1531   1.466       .  S
O186       Cr195   1.986       .  S
O186        C194   1.256       .  A
O187       Cr195   1.988       .  S
O187        C188   1.261       .  A
C188        O189   1.262       .  A
C188       C2075   1.477       .  S
O189       Cr196   2.001       .  S
O190       Cr196   1.999       .  S
O190        C191   1.266       .  A
C191        O192   1.265       .  A
C191       C1547   1.458       .  S
O192       Cr197   1.983       .  S
O193       Cr197   1.997       .  S
O193        C194   1.259       .  A
C194       C1560   1.466       .  S
Cr195       O198   1.767       .  S
Cr196       O198   1.779       .  S
Cr197       O198   1.770       .  S
O199       Cr217   2.011       .  S
O199        C207   1.268       .  A
O200       Cr217   1.964       .  S
O200        C201   1.250       .  A
C201        O202   1.265       .  A
C201       C1592   1.482       .  S
O202       Cr218   2.034       .  S
O203       Cr218   1.996       .  S
O203        C204   1.265       .  A
C204        O205   1.267       .  A
C204       C1512   1.471       .  S
O205       Cr219   2.012       .  S
O206       Cr219   1.960       .  S
O206        C207   1.258       .  A
C207       C1480   1.465       .  S
O208       Cr217   1.962       .  S
O208        C216   1.253       .  A
O209       Cr217   2.021       .  S
O209        C210   1.271       .  A
C210        O211   1.260       .  A
C210       C1464   1.457       .  S
O211       Cr218   1.955       .  S
O212       Cr218   2.036       .  S
O212        C213   1.271       .  A
C213        O214   1.259       .  A
C213       C1675   1.478       .  S
O214       Cr219   1.973       .  S
O215       Cr219   2.011       .  S
O215        C216   1.263       .  A
C216       C1496   1.469       .  S
Cr217       O220   1.778       .  S
Cr218       O220   1.784       .  S
Cr219       O220   1.774       .  S
O221       Cr239   1.947   1_556  S
O221        C229   1.257   1_455  A
O222       Cr239   2.005   1_556  S
O222        C223   1.265       .  A
C223        O224   1.265   1_556  A
C223       C1576   1.470       .  S
O224       Cr240   2.001       .  S
O225       Cr240   2.030       .  S
O225        C226   1.268       .  A
C226        O227   1.251   1_454  A
C226       C1451   1.472       .  S
O227       Cr241   1.955   1_556  S
O228       Cr241   2.036   1_556  S
O228        C229   1.275       .  A
C229       C2088   1.469       .  S
O230       Cr239   2.020   1_655  S
O230        C238   1.261       .  A
O231       Cr239   1.963       .  S
O231        C232   1.259       .  A
C232        O233   1.273       .  A
C232       C1432   1.464       .  S
O233       Cr240   2.024       .  S
O234       Cr240   1.957       .  S
O234        C235   1.257       .  A
C235        O236   1.269   1_455  A
C235       C2107   1.463   1_455  S
O236       Cr241   2.023       .  S
O237       Cr241   1.960       .  S
O237        C238   1.249       .  A
C238       C1883   1.464       .  S
Cr239       O242   1.771       .  S
Cr240       O242   1.775       .  S
Cr241       O242   1.768   1_655  S
O243       Cr261   1.975       .  S
O243        C251   1.264       .  A
O244       Cr261   1.980       .  S
O244        C245   1.258       .  A
C245        O246   1.266       .  A
C245       C1448   1.468       .  S
O246       Cr262   2.006   1_554  S
O247       Cr262   2.030   1_554  S
O247        C248   1.270       .  A
C248        O249   1.258       .  A
C248       C1400   1.477       .  S
O249       Cr263   1.975       .  S
O250       Cr263   2.002       .  S
O250        C251   1.268       .  A
C251       C2168   1.459       .  S
O252       Cr261   1.996   1_455  S
O252        C260   1.256       .  A
O253       Cr261   1.978   1_456  S
O253        C254   1.265   1_455  A
C254        O255   1.270       .  A
C254       C2187   1.461       .  S
O255       Cr262   2.015       .  S
O256       Cr262   1.976       .  S
O256        C257   1.259       .  A
C257        O258   1.262   1_556  A
C257       C1416   1.459       .  S
O258       Cr263   1.991       .  S
O259       Cr263   1.990       .  S
O259        C260   1.255   1_655  A
C260       C2043   1.466   1_554  S
Cr261       O264   1.774       .  S
Cr262       O264   1.779   1_556  S
Cr263       O264   1.765       .  S
O265       Cr283   2.021       .  S
O265        C273   1.271       .  A
O266       Cr283   1.962       .  S
O266        C267   1.252       .  A
C267        O268   1.269       .  A
C267       C1384   1.480       .  S
O268       Cr284   2.035       .  S
O269       Cr284   2.002       .  S
O269        C270   1.265       .  A
C270        O271   1.263       .  A
C270       C1515   1.470       .  S
O271       Cr285   2.001       .  S
O272       Cr285   1.959       .  S
O272        C273   1.259       .  A
C273       C1688   1.466       .  S
O274       Cr283   1.962       .  S
O274        C282   1.251       .  A
O275       Cr283   2.016       .  S
O275        C276   1.269       .  A
C276        O277   1.257       .  A
C276       C1707   1.461       .  S
O277       Cr284   1.958       .  S
O278       Cr284   2.033       .  S
O278        C279   1.273       .  A
C279        O280   1.258       .  A
C279       C1368   1.468       .  S
O280       Cr285   1.960       .  S
O281       Cr285   2.002       .  S
O281        C282   1.260       .  A
C282       C1819   1.461       .  S
Cr283       O286   1.772       .  S
Cr284       O286   1.779       .  S
Cr285       O286   1.770       .  S
O287       Cr305   2.004       .  S
O287        C295   1.267       .  A
O288       Cr305   1.977       .  S
O288        C289   1.260       .  A
C289        O290   1.271       .  A
C289       C1339   1.471       .  S
O290       Cr306   2.026       .  S
O291       Cr306   2.015       .  S
O291        C292   1.270       .  A
C292        O293   1.260       .  A
C292       C1387   1.477       .  S
O293       Cr307   1.985       .  S
O294       Cr307   1.979       .  S
O294        C295   1.264       .  A
C295       C1627   1.466       .  S
O296       Cr305   2.006       .  S
O296        C304   1.261       .  A
O297       Cr305   1.993       .  S
O297        C298   1.260       .  A
C298        O299   1.262       .  A
C298       C1352   1.470       .  S
O299       Cr306   2.003       .  S
O300       Cr306   1.997       .  S
O300        C301   1.264       .  A
C301        O302   1.264       .  A
C301       C1643   1.454       .  S
O302       Cr307   1.980       .  S
O303       Cr307   2.001       .  S
O303        C304   1.259       .  A
C304       C1979   1.477       .  S
Cr305       O308   1.765       .  S
Cr306       O308   1.775       .  S
Cr307       O308   1.771       .  S
O309       Cr327   1.986       .  S
O309        C317   1.265       .  A
O310       Cr327   1.968       .  S
O310        C311   1.255       .  A
C311        O312   1.270       .  A
C311       C1323   1.471       .  S
O312       Cr328   2.025       .  S
O313       Cr328   2.028       .  S
O313        C314   1.267       .  A
C314        O315   1.256       .  A
C314       C1403   1.478       .  S
O315       Cr329   1.976       .  S
O316       Cr329   1.997       .  S
O316        C317   1.267       .  A
C317       C1291   1.464       .  S
O318       Cr327   1.986       .  S
O318        C326   1.255       .  A
O319       Cr327   1.993       .  S
O319        C320   1.268       .  A
C320        O321   1.271       .  A
C320       C1275   1.476       .  S
O321       Cr328   2.016       .  S
O322       Cr328   1.979       .  S
O322        C323   1.262       .  A
C323        O324   1.264       .  A
C323       C2152   1.462       .  S
O324       Cr329   1.991       .  S
O325       Cr329   1.988       .  S
O325        C326   1.256       .  A
C326       C1307   1.463       .  S
Cr327       O330   1.771       .  S
Cr328       O330   1.774       .  S
Cr329       O330   1.769       .  S
O331       Cr349   2.010       .  S
O331        C339   1.271       .  A
O332       Cr349   1.975       .  S
O332        C333   1.256       .  A
C333        O334   1.264       .  A
C333       C1336   1.469       .  S
O334       Cr350   2.013       .  S
O335       Cr350   2.017       .  S
O335        C336   1.269       .  A
C336        O337   1.256       .  A
C336       C1320   1.469       .  S
O337       Cr351   1.972       .  S
O338       Cr351   1.989       .  S
O338        C339   1.267       .  A
C339       C1240   1.476       .  S
O340       Cr349   1.997       .  S
O340        C348   1.256       .  A
O341       Cr349   1.997       .  S
O341        C342   1.266       .  A
C342        O343   1.261       .  A
C342       C1608   1.468       .  S
O343       Cr350   1.983       .  S
O344       Cr350   2.000       .  S
O344        C345   1.266       .  A
C345        O346   1.269       .  A
C345       C1227   1.469       .  S
O346       Cr351   1.998       .  S
O347       Cr351   1.986       .  S
O347        C348   1.253       .  A
C348       C1259   1.470       .  S
Cr349       O352   1.767       .  S
Cr350       O352   1.780       .  S
Cr351       O352   1.773       .  S
O353       Cr371   1.998       .  S
O353        C361   1.267       .  A
O354       Cr371   1.976       .  S
O354        C355   1.258       .  A
C355        O356   1.267       .  A
C355       C1195   1.471       .  S
O356       Cr372   2.018   1_554  S
O357       Cr372   2.008   1_554  S
O357        C358   1.265       .  A
C358        O359   1.257   1_554  A
C358       C1208   1.470       .  S
O359       Cr373   1.979       .  S
O360       Cr373   1.974   1_554  S
O360        C361   1.264       .  A
C361       C1160   1.457       .  S
O362       Cr371   1.985   1_556  S
O362        C370   1.255       .  A
O363       Cr371   1.991   1_556  S
O363        C364   1.263       .  A
C364        O365   1.260       .  A
C364       C1499   1.466       .  S
O365       Cr372   1.985       .  S
O366       Cr372   2.012       .  S
O366        C367   1.269       .  A
C367        O368   1.264       .  A
C367       C1147   1.462       .  S
O368       Cr373   1.971       .  S
O369       Cr373   1.992       .  S
O369        C370   1.255       .  A
C370       C1179   1.464       .  S
Cr371       O374   1.766   1_554  S
Cr372       O374   1.781       .  S
Cr373       O374   1.777       .  S
O375       Cr393   2.032   1_556  S
O375        C383   1.274       .  A
O376       Cr393   1.959   1_556  S
O376        C377   1.251       .  A
C377        O378   1.265   1_556  A
C377       C1211   1.478       .  S
O378       Cr394   2.030       .  S
O379       Cr394   1.998   1_556  S
O379        C380   1.266       .  A
C380        O381   1.266       .  A
C380       C1131   1.469       .  S
O381       Cr395   2.009       .  S
O382       Cr395   1.955       .  S
O382        C383   1.258       .  A
C383       C1096   1.474       .  S
O384       Cr393   1.954       .  S
O384        C392   1.250       .  A
O385       Cr393   2.027       .  S
O385        C386   1.272       .  A
C386        O387   1.258       .  A
C386       C1083   1.462       .  S
O387       Cr394   1.954       .  S
O388       Cr394   2.024       .  S
O388        C389   1.272       .  A
C389        O390   1.260       .  A
C389       C1256   1.470       .  S
O390       Cr395   1.972   1_554  S
O391       Cr395   2.020   1_554  S
O391        C392   1.261       .  A
C392       C1112   1.468       .  S
Cr393       O396   1.767       .  S
Cr394       O396   1.778       .  S
Cr395       O396   1.776   1_556  S
O397       Cr415   1.975       .  S
O397        C405   1.263       .  A
O398       Cr415   1.981       .  S
O398        C399   1.258       .  A
C399        O400   1.270       .  A
C399       C1067   1.481       .  S
O400       Cr416   2.018       .  S
O401       Cr416   2.031       .  S
O401        C402   1.270       .  A
C402        O403   1.259       .  A
C402       C1035   1.476       .  S
O403       Cr417   1.972       .  S
O404       Cr417   1.999       .  S
O404        C405   1.266       .  A
C405       C1544   1.460       .  S
O406       Cr415   1.991       .  S
O406        C414   1.256       .  A
O407       Cr415   1.983       .  S
O407        C408   1.265       .  A
C408        O409   1.269       .  A
C408       C1528   1.464       .  S
O409       Cr416   2.009       .  S
O410       Cr416   1.989       .  S
O410        C411   1.261       .  A
C411        O412   1.260       .  A
C411       C1048   1.467       .  S
O412       Cr417   1.987       .  S
O413       Cr417   1.988       .  S
O413        C414   1.256       .  A
C414       C1435   1.464       .  S
Cr415       O418   1.772       .  S
Cr416       O418   1.780       .  S
Cr417       O418   1.773       .  S
O419       Cr437   2.002       .  S
O419        C427   1.269       .  A
O420       Cr437   1.974       .  S
O420        C421   1.258       .  A
C421        O422   1.267       .  A
C421       C1192   1.472       .  S
O422       Cr438   2.019       .  S
O423       Cr438   2.023       .  S
O423        C424   1.269       .  A
C424        O425   1.256       .  A
C424       C1064   1.479       .  S
O425       Cr439   1.976       .  S
O426       Cr439   1.981       .  S
O426        C427   1.265       .  A
C427       C1467   1.463       .  S
O428       Cr437   2.001       .  S
O428        C436   1.257       .  A
O429       Cr437   1.999       .  S
O429        C430   1.263       .  A
C430        O431   1.262       .  A
C430       C1016   1.473       .  S
O431       Cr438   1.986       .  S
O432       Cr438   2.004       .  S
O432        C433   1.268       .  A
C433        O434   1.268       .  A
C433       C1483   1.464       .  S
O434       Cr439   1.989       .  S
O435       Cr439   1.985       .  S
O435        C436   1.254       .  A
C436       C1371   1.470       .  S
Cr437       O440   1.772       .  S
Cr438       O440   1.776       .  S
Cr439       O440   1.772       .  S
O441       Cr459   2.015       .  S
O441        C449   1.269       .  A
O442       Cr459   1.959   1_455  S
O442        C443   1.248       .  A
C443        O444   1.265       .  A
C443       C1003   1.477       .  S
O444       Cr460   2.035       .  S
O445       Cr460   2.000       .  S
O445        C446   1.267       .  A
C446        O447   1.266       .  A
C446       C1032   1.469       .  S
O447       Cr461   2.005       .  S
O448       Cr461   1.952       .  S
O448        C449   1.256   1_455  A
C449        C968   1.461       .  S
O450       Cr459   1.958       .  S
O450        C458   1.252       .  A
O451       Cr459   2.024       .  S
O451        C452   1.272   1_655  A
C452        O453   1.258       .  A
C452        C952   1.455   1_455  S
O453       Cr460   1.948       .  S
O454       Cr460   2.022       .  S
O454        C455   1.270       .  A
C455        O456   1.258       .  A
C455       C1563   1.467       .  S
O456       Cr461   1.970       .  S
O457       Cr461   2.013   1_655  S
O457        C458   1.263       .  A
C458        C984   1.469       .  S
Cr459       O462   1.773   1_655  S
Cr460       O462   1.781       .  S
Cr461       O462   1.771       .  S
O463       Cr481   1.950       .  S
O463        C471   1.259       .  A
O464       Cr481   2.002       .  S
O464        C465   1.262       .  A
C465        O466   1.266       .  A
C465        C936   1.470       .  S
O466       Cr482   2.006       .  S
O467       Cr482   2.035       .  S
O467        C468   1.268       .  A
C468        O469   1.251       .  A
C468       C1000   1.479       .  S
O469       Cr483   1.961       .  S
O470       Cr483   2.042       .  S
O470        C471   1.277       .  A
C471        C904   1.477       .  S
O472       Cr481   2.028       .  S
O472        C480   1.260   1_655  A
O473       Cr481   1.972       .  S
O473        C474   1.264       .  A
C474        O475   1.274       .  A
C474       C1304   1.465       .  S
O475       Cr482   2.021       .  S
O476       Cr482   1.955       .  S
O476        C477   1.257       .  A
C477        O478   1.274       .  A
C477        C891   1.476       .  S
O478       Cr483   2.032       .  S
O479       Cr483   1.966   1_455  S
O479        C480   1.249       .  A
C480        C923   1.474       .  S
Cr481       O484   1.776       .  S
Cr482       O484   1.778       .  S
Cr483       O484   1.766       .  S
O485       Cr503   1.963       .  S
O485        C493   1.260       .  A
O486       Cr503   2.001       .  S
O486        C487   1.263       .  A
C487        O488   1.267       .  A
C487        C939   1.467       .  S
O488       Cr504   2.002       .  S
O489       Cr504   2.037       .  S
O489        C490   1.265       .  A
C490        O491   1.250       .  A
C490        C872   1.485       .  S
O491       Cr505   1.964       .  S
O492       Cr505   2.024       .  S
O492        C493   1.272       .  A
C493       C1272   1.476       .  S
O494       Cr503   2.000       .  S
O494        C502   1.259       .  A
O495       Cr503   1.977       .  S
O495        C496   1.260       .  A
C496        O497   1.272       .  A
C496        C856   1.474       .  S
O497       Cr504   2.034       .  S
O498       Cr504   1.952       .  S
O498        C499   1.259       .  A
C499        O500   1.274       .  A
C499       C1288   1.462       .  S
O500       Cr505   2.027       .  S
O501       Cr505   1.964       .  S
O501        C502   1.251       .  A
C502       C1419   1.464       .  S
Cr503       O506   1.774       .  S
Cr504       O506   1.781       .  S
Cr505       O506   1.776       .  S
O507       Cr525   2.037       .  S
O507        C515   1.275       .  A
O508       Cr525   1.960       .  S
O508        C509   1.251       .  A
C509        O510   1.269       .  A
C509        C875   1.485       .  S
O510       Cr526   2.045       .  S
O511       Cr526   2.002       .  S
O511        C512   1.267       .  A
C512        O513   1.265       .  A
C512       C1128   1.470       .  S
O513       Cr527   2.006       .  S
O514       Cr527   1.945       .  S
O514        C515   1.255       .  A
C515       C1224   1.471       .  S
O516       Cr525   1.960       .  S
O516        C524   1.249       .  A
O517       Cr525   2.028       .  S
O517        C518   1.272       .  A
C518        O519   1.257       .  A
C518       C1243   1.468       .  S
O519       Cr526   1.955       .  S
O520       Cr526   2.032       .  S
O520        C521   1.273       .  A
C521        O522   1.260       .  A
C521        C840   1.467       .  S
O522       Cr527   1.961       .  S
O523       Cr527   2.028       .  S
O523        C524   1.262       .  A
C524       C1355   1.474       .  S
Cr525       O528   1.767       .  S
Cr526       O528   1.778       .  S
Cr527       O528   1.773       .  S
O529       Cr547   2.002       .  S
O529        C537   1.268       .  A
O530       Cr547   1.976       .  S
O530        C531   1.258       .  A
C531        O532   1.269   1_556  A
C531        C808   1.476       .  S
O532       Cr548   2.027       .  S
O533       Cr548   2.019       .  S
O533        C534   1.270       .  A
C534        O535   1.257       .  A
C534        C827   1.475       .  S
O535       Cr549   1.976       .  S
O536       Cr549   1.969   1_556  S
O536        C537   1.262       .  A
C537        C955   1.459       .  S
O538       Cr547   1.995   1_554  S
O538        C546   1.256   1_655  A
O539       Cr547   1.988   1_554  S
O539        C540   1.262       .  A
C540        O541   1.261       .  A
C540       C1832   1.465       .  S
O541       Cr548   1.985       .  S
O542       Cr548   2.007       .  S
O542        C543   1.268       .  A
C543        O544   1.266       .  A
C543        C971   1.461       .  S
O544       Cr549   1.978       .  S
O545       Cr549   1.993   1_455  S
O545        C546   1.255       .  A
C546       C1051   1.468       .  S
Cr547       O550   1.769   1_556  S
Cr548       O550   1.778       .  S
Cr549       O550   1.773       .  S
O551       Cr569   2.039       .  S
O551        C559   1.275       .  A
O552       Cr569   1.950   1_455  S
O552        C553   1.248       .  A
C553        O554   1.269       .  A
C553        C824   1.477       .  S
O554       Cr570   2.040   1_554  S
O555       Cr570   2.002   1_554  S
O555        C556   1.263       .  A
C556        O557   1.262       .  A
C556        C795   1.471       .  S
O557       Cr571   1.996       .  S
O558       Cr571   1.960       .  S
O558        C559   1.260   1_455  A
C559        C888   1.478       .  S
O560       Cr569   1.958   1_556  S
O560        C568   1.249   1_556  A
O561       Cr569   2.030   1_556  S
O561        C562   1.273   1_655  A
C562        O563   1.255       .  A
C562        C907   1.472       .  S
O563       Cr570   1.950       .  S
O564       Cr570   2.029       .  S
O564        C565   1.275       .  A
C565        O566   1.262       .  A
C565       C2027   1.468       .  S
O566       Cr571   1.967   1_556  S
O567       Cr571   2.020   1_655  S
O567        C568   1.262       .  A
C568        C859   1.473   1_554  S
Cr569       O572   1.771   1_655  S
Cr570       O572   1.783   1_556  S
Cr571       O572   1.773       .  S
O573       Cr591   1.965       .  S
O573        C581   1.259       .  A
O574       Cr591   1.998       .  S
O574        C575   1.265       .  A
C575        O576   1.271       .  A
C575        C811   1.475       .  S
O576       Cr592   2.011       .  S
O577       Cr592   2.033       .  S
O577        C578   1.265       .  A
C578        O579   1.251       .  A
C578        C776   1.485       .  S
O579       Cr593   1.971       .  S
O580       Cr593   2.016       .  S
O580        C581   1.271       .  A
C581       C1864   1.470       .  S
O582       Cr591   2.002       .  S
O582        C590   1.260       .  A
O583       Cr591   1.977       .  S
O583        C584   1.259       .  A
C584        O585   1.268       .  A
C584        C987   1.470       .  S
O585       Cr592   2.024       .  S
O586       Cr592   1.956       .  S
O586        C587   1.259       .  A
C587        O588   1.272       .  A
C587       C1851   1.460       .  S
O588       Cr593   2.022       .  S
O589       Cr593   1.964       .  S
O589        C590   1.250       .  A
C590       C2139   1.466       .  S
Cr591       O594   1.771       .  S
Cr592       O594   1.783       .  S
Cr593       O594   1.780       .  S
O595       Cr613   2.046       .  S
O595        C603   1.278       .  A
O596       Cr613   1.963       .  S
O596        C597   1.255       .  A
C597        O598   1.271       .  A
C597        C779   1.483       .  S
O598       Cr614   2.038       .  S
O599       Cr614   2.007       .  S
O599        C600   1.265       .  A
C600        O601   1.259       .  A
C600        C760   1.472       .  S
O601       Cr615   1.990       .  S
O602       Cr615   1.947       .  S
O602        C603   1.259       .  A
C603       C1768   1.470       .  S
O604       Cr613   1.971       .  S
O604        C612   1.249       .  A
O605       Cr613   2.026       .  S
O605        C606   1.270       .  A
C606        O607   1.255       .  A
C606       C1755   1.474       .  S
O607       Cr614   1.953       .  S
O608       Cr614   2.024       .  S
O608        C609   1.274       .  A
C609        O610   1.265       .  A
C609       C1176   1.463       .  S
O610       Cr615   1.965       .  S
O611       Cr615   2.016       .  S
O611        C612   1.257       .  A
C612       C1723   1.463       .  S
Cr613       O616   1.768       .  S
Cr614       O616   1.776       .  S
Cr615       O616   1.775       .  S
O617       Cr635   2.001       .  S
O617        C625   1.270       .  A
O618       Cr635   1.979       .  S
O618        C619   1.257       .  A
C619        O620   1.270       .  A
C619        C731   1.481       .  S
O620       Cr636   2.027       .  S
O621       Cr636   2.040       .  S
O621        C622   1.273       .  A
C622        O623   1.256       .  A
C622        C747   1.487       .  S
O623       Cr637   1.975       .  S
O624       Cr637   1.987       .  S
O624        C625   1.267       .  A
C625       C1080   1.466       .  S
O626       Cr635   1.994       .  S
O626        C634   1.255       .  A
O627       Cr635   1.991       .  S
O627        C628   1.263       .  A
C628        O629   1.263       .  A
C628       C1947   1.470       .  S
O629       Cr636   1.989       .  S
O630       Cr636   2.014       .  S
O630        C631   1.271       .  A
C631        O632   1.270       .  A
C631       C1099   1.473       .  S
O632       Cr637   1.995       .  S
O633       Cr637   1.987       .  S
O633        C634   1.253       .  A
C634        C843   1.468       .  S
Cr635       O638   1.772       .  S
Cr636       O638   1.776       .  S
Cr637       O638   1.773       .  S
O639       Cr657   1.977       .  S
O639        C647   1.264       .  A
O640       Cr657   1.986       .  S
O640        C641   1.260       .  A
C641        O642   1.274       .  A
C641        C744   1.485       .  S
O642       Cr658   2.027       .  S
O643       Cr658   2.029       .  S
O643        C644   1.271       .  A
C644        O645   1.260       .  A
C644        C763   1.476       .  S
O645       Cr659   1.979       .  S
O646       Cr659   2.003       .  S
O646        C647   1.268       .  A
C647       C1144   1.461       .  S
O648       Cr657   1.995       .  S
O648        C656   1.255       .  A
O649       Cr657   1.983       .  S
O649        C650   1.265       .  A
C650        O651   1.265       .  A
C650       C1163   1.457       .  S
O651       Cr658   1.997       .  S
O652       Cr658   2.005       .  S
O652        C653   1.262       .  A
C653        O654   1.261       .  A
C653       C1787   1.473       .  S
O654       Cr659   1.989       .  S
O655       Cr659   2.002       .  S
O655        C656   1.259       .  A
C656       C1019   1.467       .  S
Cr657       O660   1.771       .  S
Cr658       O660   1.770       .  S
Cr659       O660   1.765       .  S
O661       Cr679   1.981       .  S
O661        C669   1.262       .  A
O662       Cr679   1.983       .  S
O662        C663   1.260       .  A
C663        O664   1.269       .  A
C663        C715   1.475       .  S
O664       Cr680   2.013       .  S
O665       Cr680   2.025       .  S
O665        C666   1.269       .  A
C666        O667   1.259       .  A
C666        C792   1.472       .  S
O667       Cr681   1.977       .  S
O668       Cr681   2.001       .  S
O668        C669   1.267       .  A
C669       C1995   1.465       .  S
O670       Cr679   2.000       .  S
O670        C678   1.260       .  A
O671       Cr679   1.982       .  S
O671        C672   1.264       .  A
C672        O673   1.265       .  A
C672       C2008   1.457       .  S
O673       Cr680   2.000       .  S
O674       Cr680   2.004       .  S
O674        C675   1.262       .  A
C675        O676   1.263       .  A
C675        C920   1.474       .  S
O676       Cr681   1.996       .  S
O677       Cr681   1.997       .  S
O677        C678   1.260       .  A
C678       C2219   1.472       .  S
Cr679       O682   1.769       .  S
Cr680       O682   1.773       .  S
Cr681       O682   1.762       .  S
O683       Cr701   1.999       .  S
O683        C691   1.266       .  A
O684       Cr701   1.975       .  S
O684        C685   1.258       .  A
C685        O686   1.273       .  A
C685        C728   1.481       .  S
O686       Cr702   2.044       .  S
O687       Cr702   2.005       .  S
O687        C688   1.269       .  A
C688        O689   1.262       .  A
C688        C712   1.475       .  S
O689       Cr703   1.992       .  S
O690       Cr703   1.982       .  S
O690        C691   1.263       .  A
C691       C1912   1.465       .  S
O692       Cr701   1.985       .  S
O692        C700   1.258       .  A
O693       Cr701   1.998       .  S
O693        C694   1.262       .  A
C694        O695   1.258       .  A
C694       C1115   1.457       .  S
O695       Cr702   1.984       .  S
O696       Cr702   2.010       .  S
O696        C697   1.268       .  A
C697        O698   1.265       .  A
C697       C1931   1.466       .  S
O698       Cr703   1.986       .  S
O699       Cr703   2.010       .  S
O699        C700   1.261       .  A
C700       C1659   1.469       .  S
Cr701       O704   1.762       .  S
Cr702       O704   1.769       .  S
Cr703       O704   1.769       .  S
C705        C710   1.379       .  A
C705        C706   1.409       .  A
C705        O711   1.316       .  A
C706        C707   1.404       .  A
C706        H717   1.082       .  S
C707        C716   1.373       .  A
C707        C708   1.379       .  A
C708        C709   1.406       .  A
C708        O714   1.314       .  A
C709        C710   1.401       .  A
C709        H718   1.082       .  S
C710        C713   1.369       .  A
O711        C712   1.334       .  A
C712        C713   1.391       .  A
C713        H719   1.082       .  S
O714        C715   1.332       .  A
C715        C716   1.393       .  A
C716        H720   1.082       .  S
C721        C726   1.379       .  A
C721        C722   1.407       .  A
C721        O727   1.324       .  A
C722        C723   1.408       .  A
C722        H733   1.082       .  S
C723        C732   1.365       .  A
C723        C724   1.379       .  A
C724        C725   1.410       .  A
C724        O730   1.327       .  A
C725        C726   1.410       .  A
C725        H734   1.082       .  S
C726        C729   1.368       .  A
O727        C728   1.334       .  A
C728        C729   1.395       .  A
C729        H735   1.083       .  S
O730        C731   1.335       .  A
C731        C732   1.393       .  A
C732        H736   1.083       .  S
C737        C742   1.378       .  A
C737        C738   1.414       .  A
C737        O743   1.319       .  A
C738        C739   1.409   1_565  A
C738        H749   1.082       .  S
C739        C748   1.381       .  A
C739        C740   1.378       .  A
C740        C741   1.409       .  A
C740        O746   1.314       .  A
C741        C742   1.403   1_545  A
C741        H750   1.082       .  S
C742        C745   1.375       .  A
O743        C744   1.337       .  A
C744        C745   1.392       .  A
C745        H751   1.082       .  S
O746        C747   1.335       .  A
C747        C748   1.396       .  A
C748        H752   1.082       .  S
C753        C758   1.380       .  A
C753        C754   1.408       .  A
C753        O759   1.326       .  A
C754        C755   1.409       .  A
C754        H765   1.082       .  S
C755        C764   1.365       .  A
C755        C756   1.380       .  A
C756        C757   1.404       .  A
C756        O762   1.323       .  A
C757        C758   1.405       .  A
C757        H766   1.082       .  S
C758        C761   1.360       .  A
O759        C760   1.334       .  A
C760        C761   1.392       .  A
C761        H767   1.083       .  S
O762        C763   1.332       .  A
C763        C764   1.394       .  A
C764        H768   1.083       .  S
C769        C774   1.379       .  A
C769        C770   1.405       .  A
C769        O775   1.324       .  A
C770        C771   1.406       .  A
C770        H781   1.082       .  S
C771        C780   1.362       .  A
C771        C772   1.379       .  A
C772        C773   1.410       .  A
C772        O778   1.327       .  A
C773        C774   1.411       .  A
C773        H782   1.082       .  S
C774        C777   1.368       .  A
O775        C776   1.333       .  A
C776        C777   1.398       .  A
C777        H783   1.083       .  S
O778        C779   1.336       .  A
C779        C780   1.394       .  A
C780        H784   1.083       .  S
C785        C790   1.381       .  A
C785        C786   1.400       .  A
C785        O791   1.319       .  A
C786        C787   1.401       .  A
C786        H797   1.083       .  S
C787        C796   1.356       .  A
C787        C788   1.380       .  A
C788        C789   1.409       .  A
C788        O794   1.327       .  A
C789        C790   1.409       .  A
C789        H798   1.082       .  S
C790        C793   1.367       .  A
O791        C792   1.330       .  A
C792        C793   1.394       .  A
C793        H799   1.082       .  S
O794        C795   1.334       .  A
C795        C796   1.390       .  A
C796        H800   1.084       .  S
C801        C806   1.380       .  A
C801        C802   1.403       .  A
C801        O807   1.322       .  A
C802        C803   1.404       .  A
C802        H813   1.083       .  S
C803        C812   1.359       .  A
C803        C804   1.379       .  A
C804        C805   1.410       .  A
C804        O810   1.327       .  A
C805        C806   1.410       .  A
C805        H814   1.082       .  S
C806        C809   1.367       .  A
O807        C808   1.332       .  A
C808        C809   1.395       .  A
C809        H815   1.082       .  S
O810        C811   1.335       .  A
C811        C812   1.392       .  A
C812        H816   1.083       .  S
C817        C822   1.378   1_655  A
C817        C818   1.408       .  A
C817        O823   1.316       .  A
C818        C819   1.404       .  A
C818        H829   1.082       .  S
C819        C828   1.373       .  A
C819        C820   1.378       .  A
C820        C821   1.408   1_655  A
C820        O826   1.316       .  A
C821        C822   1.404       .  A
C821        H830   1.082   1_554  S
C822        C825   1.373       .  A
O823        C824   1.334   1_655  A
C824        C825   1.393       .  A
C825        H831   1.082       .  S
O826        C827   1.334       .  A
C827        C828   1.392       .  A
C828        H832   1.082       .  S
C833        C838   1.381       .  A
C833        C834   1.402       .  A
C833        O839   1.320       .  A
C834        C835   1.402       .  A
C834        H845   1.082       .  S
C835        C844   1.358       .  A
C835        C836   1.381       .  A
C836        C837   1.402       .  A
C836        O842   1.320       .  A
C837        C838   1.402       .  A
C837        H846   1.082       .  S
C838        C841   1.358       .  A
O839        C840   1.330       .  A
C840        C841   1.391       .  A
C841        H847   1.083       .  S
O842        C843   1.330       .  A
C843        C844   1.392       .  A
C844        H848   1.082       .  S
C849        C854   1.381       .  A
C849        C850   1.402       .  A
C849        O855   1.320       .  A
C850        C851   1.402       .  A
C850        H861   1.082       .  S
C851        C860   1.358       .  A
C851        C852   1.380       .  A
C852        C853   1.407       .  A
C852        O858   1.324       .  A
C853        C854   1.407       .  A
C853        H862   1.082       .  S
C854        C857   1.365       .  A
O855        C856   1.330       .  A
C856        C857   1.394       .  A
C857        H863   1.082       .  S
O858        C859   1.332       .  A
C859        C860   1.391       .  A
C860        H864   1.082       .  S
C865        C870   1.379       .  A
C865        C866   1.407       .  A
C865        O871   1.327       .  A
C866        C867   1.409       .  A
C866        H877   1.082       .  S
C867        C876   1.362       .  A
C867        C868   1.379       .  A
C868        C869   1.407       .  A
C868        O874   1.327       .  A
C869        C870   1.409       .  A
C869        H878   1.082       .  S
C870        C873   1.363       .  A
O871        C872   1.334       .  A
C872        C873   1.396       .  A
C873        H879   1.083       .  S
O874        C875   1.334       .  A
C875        C876   1.397       .  A
C876        H880   1.083       .  S
C881        C886   1.380       .  A
C881        C882   1.406       .  A
C881        O887   1.326       .  A
C882        C883   1.408       .  A
C882        H893   1.081       .  S
C883        C892   1.362       .  A
C883        C884   1.381       .  A
C884        C885   1.403   1_655  A
C884        O890   1.323       .  A
C885        C886   1.404   1_455  A
C885        H894   1.082       .  S
C886        C889   1.358   1_655  A
O887        C888   1.333       .  A
C888        C889   1.393   1_655  A
C889        H895   1.083       .  S
O890        C891   1.331       .  A
C891        C892   1.395       .  A
C892        H896   1.082       .  S
C897        C902   1.380   1_455  A
C897        C898   1.406       .  A
C897        O903   1.326       .  A
C898        C899   1.407       .  A
C898        H909   1.081       .  S
C899        C908   1.362       .  A
C899        C900   1.380   1_455  A
C900        C901   1.403       .  A
C900        O906   1.322       .  A
C901        C902   1.404       .  A
C901        H910   1.082       .  S
C902        C905   1.357       .  A
O903        C904   1.332   1_455  A
C904        C905   1.394       .  A
C905        H911   1.083       .  S
O906        C907   1.331   1_655  A
C907        C908   1.395       .  A
C908        H912   1.082       .  S
C913        C918   1.380       .  A
C913        C914   1.415       .  A
C913        O919   1.329       .  A
C914        C915   1.414       .  A
C914        H925   1.082       .  S
C915        C924   1.375       .  A
C915        C916   1.380       .  A
C916        C917   1.396       .  A
C916        O922   1.313       .  A
C917        C918   1.395       .  A
C917        H926   1.083       .  S
C918        C921   1.353       .  A
O919        C920   1.337       .  A
C920        C921   1.386       .  A
C921        H927   1.083       .  S
O922        C923   1.327       .  A
C923        C924   1.398       .  A
C924        H928   1.082       .  S
C929        C934   1.380       .  A
C929        C930   1.406       .  A
C929        O935   1.318       .  A
C930        C931   1.403       .  A
C930        H941   1.083       .  S
C931        C940   1.367       .  A
C931        C932   1.379       .  A
C932        C933   1.407       .  A
C932        O938   1.319       .  A
C933        C934   1.405       .  A
C933        H942   1.082       .  S
C934        C937   1.370       .  A
O935        C936   1.332       .  A
C936        C937   1.392       .  A
C937        H943   1.082       .  S
O938        C939   1.333       .  A
C939        C940   1.391       .  A
C940        H944   1.083       .  S
C945        C950   1.380   1_455  A
C945        C946   1.403       .  A
C945        O951   1.316       .  A
C946        C947   1.401       .  A
C946        H957   1.081       .  S
C947        C956   1.362       .  A
C947        C948   1.380   1_455  A
C948        C949   1.400       .  A
C948        O954   1.314       .  A
C949        C950   1.399       .  A
C949        H958   1.082       .  S
C950        C953   1.359       .  A
O951        C952   1.330   1_455  A
C952        C953   1.388       .  A
C953        H959   1.083       .  S
O954        C955   1.329       .  A
C955        C956   1.390   1_655  A
C956        H960   1.082       .  S
C961        C966   1.381       .  A
C961        C962   1.400   1_655  A
C961        O967   1.312   1_655  A
C962        C963   1.397   1_455  A
C962        H973   1.082       .  S
C963        C972   1.359   1_655  A
C963        C964   1.381       .  A
C964        C965   1.403       .  A
C964        O970   1.316       .  A
C965        C966   1.401       .  A
C965        H974   1.082       .  S
C966        C969   1.364       .  A
O967        C968   1.329   1_455  A
C968        C969   1.390       .  A
C969        H975   1.082       .  S
O970        C971   1.330       .  A
C971        C972   1.388   1_655  A
C972        H976   1.083       .  S
C977        C982   1.381       .  A
C977        C978   1.403       .  A
C977        O983   1.320       .  A
C978        C979   1.403       .  A
C978        H989   1.082       .  S
C979        C988   1.361       .  A
C979        C980   1.381       .  A
C980        C981   1.403       .  A
C980        O986   1.320       .  A
C981        C982   1.403       .  A
C981        H990   1.082       .  S
C982        C985   1.359       .  A
O983        C984   1.330       .  A
C984        C985   1.392       .  A
C985        H991   1.082       .  S
O986        C987   1.331       .  A
C987        C988   1.391       .  A
C988        H992   1.083       .  S
C993        C998   1.379       .  A
C993        C994   1.408   1_655  A
C993        O999   1.319       .  A
C994        C995   1.405       .  A
C994       H1005   1.082       .  S
C995       C1004   1.369       .  A
C995        C996   1.378   1_455  A
C996        C997   1.408       .  A
C996       O1002   1.319       .  A
C997        C998   1.406       .  A
C997       H1006   1.082       .  S
C998       C1001   1.370       .  A
O999       C1000   1.334       .  A
C1000      C1001   1.394       .  A
C1001      H1007   1.082       .  S
O1002      C1003   1.334   1_655  A
C1003      C1004   1.394       .  A
C1004      H1008   1.082       .  S
C1009      C1014   1.380       .  A
C1009      C1010   1.406       .  A
C1009      O1015   1.320       .  A
C1010      C1011   1.405       .  A
C1010      H1021   1.082       .  S
C1011      C1020   1.366       .  A
C1011      C1012   1.380       .  A
C1012      C1013   1.403       .  A
C1012      O1018   1.317       .  A
C1013      C1014   1.402       .  A
C1013      H1022   1.082       .  S
C1014      C1017   1.362       .  A
O1015      C1016   1.333       .  A
C1016      C1017   1.391       .  A
C1017      H1023   1.082       .  S
O1018      C1019   1.331       .  A
C1019      C1020   1.392       .  A
C1020      H1024   1.083       .  S
C1025      C1030   1.380       .  A
C1025      C1026   1.403       .  A
C1025      O1031   1.316       .  A
C1026      C1027   1.401       .  A
C1026      H1037   1.083       .  S
C1027      C1036   1.363       .  A
C1027      C1028   1.380       .  A
C1028      C1029   1.410       .  A
C1028      O1034   1.324       .  A
C1029      C1030   1.409       .  A
C1029      H1038   1.081       .  S
C1030      C1033   1.371       .  A
O1031      C1032   1.330       .  A
C1032      C1033   1.394       .  A
C1033      H1039   1.082       .  S
O1034      C1035   1.334       .  A
C1035      C1036   1.391       .  A
C1036      H1040   1.083       .  S
C1041      C1046   1.380       .  A
C1041      C1042   1.405       .  A
C1041      O1047   1.317       .  A
C1042      C1043   1.403       .  A
C1042      H1053   1.082       .  S
C1043      C1052   1.365       .  A
C1043      C1044   1.380       .  A
C1044      C1045   1.404       .  A
C1044      O1050   1.316       .  A
C1045      C1046   1.401       .  A
C1045      H1054   1.082       .  S
C1046      C1049   1.364       .  A
O1047      C1048   1.331       .  A
C1048      C1049   1.390       .  A
C1049      H1055   1.082       .  S
O1050      C1051   1.331       .  A
C1051      C1052   1.391       .  A
C1052      H1056   1.083       .  S
C1057      C1062   1.378       .  A
C1057      C1058   1.408       .  A
C1057      O1063   1.316       .  A
C1058      C1059   1.404       .  A
C1058      H1069   1.083       .  S
C1059      C1068   1.373       .  A
C1059      C1060   1.378       .  A
C1060      C1061   1.411       .  A
C1060      O1066   1.318       .  A
C1061      C1062   1.406       .  A
C1061      H1070   1.083       .  S
C1062      C1065   1.376       .  A
O1063      C1064   1.334       .  A
C1064      C1065   1.394       .  A
C1065      H1071   1.082       .  S
O1066      C1067   1.335       .  A
C1067      C1068   1.393       .  A
C1068      H1072   1.082       .  S
C1073      C1078   1.381       .  A
C1073      C1074   1.404       .  A
C1073      O1079   1.323       .  A
C1074      C1075   1.406       .  A
C1074      H1085   1.082       .  S
C1075      C1084   1.362       .  A
C1075      C1076   1.381       .  A
C1076      C1077   1.400       .  A
C1076      O1082   1.318       .  A
C1077      C1078   1.400       .  A
C1077      H1086   1.082       .  S
C1078      C1081   1.356       .  A
O1079      C1080   1.331       .  A
C1080      C1081   1.389       .  A
C1081      H1087   1.082       .  S
O1082      C1083   1.329       .  A
C1083      C1084   1.392       .  A
C1084      H1088   1.082       .  S
C1089      C1094   1.380       .  A
C1089      C1090   1.404       .  A
C1089      O1095   1.316       .  A
C1090      C1091   1.402       .  A
C1090      H1101   1.083       .  S
C1091      C1100   1.365       .  A
C1091      C1092   1.380       .  A
C1092      C1093   1.408       .  A
C1092      O1098   1.320       .  A
C1093      C1094   1.405       .  A
C1093      H1102   1.082       .  S
C1094      C1097   1.369       .  A
O1095      C1096   1.332       .  A
C1096      C1097   1.393       .  A
C1097      H1103   1.082       .  S
O1098      C1099   1.333       .  A
C1099      C1100   1.391       .  A
C1100      H1104   1.083       .  S
C1105      C1110   1.381       .  A
C1105      C1106   1.409       .  A
C1105      O1111   1.325       .  A
C1106      C1107   1.409       .  A
C1106      H1117   1.083       .  S
C1107      C1116   1.368       .  A
C1107      C1108   1.382       .  A
C1108      C1109   1.394       .  A
C1108      O1114   1.312       .  A
C1109      C1110   1.394       .  A
C1109      H1118   1.083       .  S
C1110      C1113   1.350       .  A
O1111      C1112   1.334       .  A
C1112      C1113   1.387       .  A
C1113      H1119   1.083       .  S
O1114      C1115   1.325       .  A
C1115      C1116   1.393       .  A
C1116      H1120   1.083       .  S
C1121      C1126   1.380       .  A
C1121      C1122   1.405       .  A
C1121      O1127   1.317       .  A
C1122      C1123   1.403       .  A
C1122      H1133   1.082       .  S
C1123      C1132   1.366       .  A
C1123      C1124   1.380       .  A
C1124      C1125   1.408       .  A
C1124      O1130   1.320       .  A
C1125      C1126   1.405       .  A
C1125      H1134   1.082       .  S
C1126      C1129   1.370       .  A
O1127      C1128   1.332       .  A
C1128      C1129   1.392       .  A
C1129      H1135   1.083       .  S
O1130      C1131   1.332       .  A
C1131      C1132   1.391       .  A
C1132      H1136   1.083       .  S
C1137      C1142   1.381       .  A
C1137      C1138   1.399       .  A
C1137      O1143   1.313       .  A
C1138      C1139   1.397       .  A
C1138      H1149   1.082       .  S
C1139      C1148   1.356       .  A
C1139      C1140   1.381       .  A
C1140      C1141   1.405       .  A
C1140      O1146   1.319       .  A
C1141      C1142   1.403       .  A
C1141      H1150   1.081       .  S
C1142      C1145   1.364       .  A
O1143      C1144   1.328       .  A
C1144      C1145   1.391       .  A
C1145      H1151   1.082       .  S
O1146      C1147   1.331       .  A
C1147      C1148   1.388       .  A
C1148      H1152   1.083       .  S
C1153      C1158   1.381       .  A
C1153      C1154   1.401       .  A
C1153      O1159   1.312       .  A
C1154      C1155   1.398       .  A
C1154      H1165   1.082       .  S
C1155      C1164   1.361       .  A
C1155      C1156   1.381       .  A
C1156      C1157   1.401       .  A
C1156      O1162   1.313       .  A
C1157      C1158   1.398       .  A
C1157      H1166   1.082       .  S
C1158      C1161   1.362       .  A
O1159      C1160   1.329       .  A
C1160      C1161   1.389       .  A
C1161      H1167   1.082       .  S
O1162      C1163   1.329       .  A
C1163      C1164   1.389       .  A
C1164      H1168   1.083       .  S
C1169      C1174   1.381       .  A
C1169      C1170   1.403       .  A
C1169      O1175   1.318       .  A
C1170      C1171   1.403       .  A
C1170      H1181   1.082       .  S
C1171      C1180   1.360       .  A
C1171      C1172   1.381       .  A
C1172      C1173   1.400       .  A
C1172      O1178   1.317       .  A
C1173      C1174   1.399       .  A
C1173      H1182   1.082       .  S
C1174      C1177   1.357       .  A
O1175      C1176   1.330       .  A
C1176      C1177   1.389       .  A
C1177      H1183   1.083       .  S
O1178      C1179   1.328       .  A
C1179      C1180   1.392       .  A
C1180      H1184   1.082       .  S
C1185      C1190   1.380       .  A
C1185      C1186   1.406       .  A
C1185      O1191   1.320       .  A
C1186      C1187   1.405       .  A
C1186      H1197   1.083       .  S
C1187      C1196   1.367       .  A
C1187      C1188   1.380       .  A
C1188      C1189   1.405       .  A
C1188      O1194   1.319       .  A
C1189      C1190   1.404       .  A
C1189      H1198   1.082       .  S
C1190      C1193   1.366       .  A
O1191      C1192   1.331       .  A
C1192      C1193   1.393       .  A
C1193      H1199   1.083       .  S
O1194      C1195   1.331       .  A
C1195      C1196   1.392       .  A
C1196      H1200   1.083       .  S
C1201      C1206   1.380       .  A
C1201      C1202   1.404   1_564  A
C1201      O1207   1.323   1_554  A
C1202      C1203   1.405       .  A
C1202      H1213   1.082       .  S
C1203      C1212   1.360       .  A
C1203      C1204   1.379   1_556  A
C1204      C1205   1.405       .  A
C1204      O1210   1.324       .  A
C1205      C1206   1.407   1_545  A
C1205      H1214   1.082   1_545  S
C1206      C1209   1.361       .  A
O1207      C1208   1.331   1_556  A
C1208      C1209   1.394       .  A
C1209      H1215   1.083       .  S
O1210      C1211   1.333   1_554  A
C1211      C1212   1.394       .  A
C1212      H1216   1.083       .  S
C1217      C1222   1.379       .  A
C1217      C1218   1.404       .  A
C1217      O1223   1.313       .  A
C1218      C1219   1.400   1_556  A
C1218      H1229   1.083       .  S
C1219      C1228   1.366       .  A
C1219      C1220   1.380       .  A
C1220      C1221   1.407   1_554  A
C1220      O1226   1.316       .  A
C1221      C1222   1.403       .  A
C1221      H1230   1.082       .  S
C1222      C1225   1.370       .  A
O1223      C1224   1.331       .  A
C1224      C1225   1.392       .  A
C1225      H1231   1.082       .  S
O1226      C1227   1.332       .  A
C1227      C1228   1.390       .  A
C1228      H1232   1.083       .  S
C1233      C1238   1.380       .  A
C1233      C1234   1.405       .  A
C1233      O1239   1.323       .  A
C1234      C1235   1.406       .  A
C1234      H1245   1.082       .  S
C1235      C1244   1.363       .  A
C1235      C1236   1.380       .  A
C1236      C1237   1.405       .  A
C1236      O1242   1.321       .  A
C1237      C1238   1.405       .  A
C1237      H1246   1.082       .  S
C1238      C1241   1.363       .  A
O1239      C1240   1.332       .  A
C1240      C1241   1.393       .  A
C1241      H1247   1.082       .  S
O1242      C1243   1.332       .  A
C1243      C1244   1.392       .  A
C1244      H1248   1.082       .  S
C1249      C1254   1.380       .  A
C1249      C1250   1.406       .  A
C1249      O1255   1.319       .  A
C1250      C1251   1.404       .  A
C1250      H1261   1.082       .  S
C1251      C1260   1.367       .  A
C1251      C1252   1.380       .  A
C1252      C1253   1.403       .  A
C1252      O1258   1.316       .  A
C1253      C1254   1.401       .  A
C1253      H1262   1.082       .  S
C1254      C1257   1.362       .  A
O1255      C1256   1.332       .  A
C1256      C1257   1.390       .  A
C1257      H1263   1.082       .  S
O1258      C1259   1.331       .  A
C1259      C1260   1.392       .  A
C1260      H1264   1.082       .  S
C1265      C1270   1.380       .  A
C1265      C1266   1.405       .  A
C1265      O1271   1.323       .  A
C1266      C1267   1.406       .  A
C1266      H1277   1.082       .  S
C1267      C1276   1.362       .  A
C1267      C1268   1.380       .  A
C1268      C1269   1.404       .  A
C1268      O1274   1.322       .  A
C1269      C1270   1.404       .  A
C1269      H1278   1.082       .  S
C1270      C1273   1.359       .  A
O1271      C1272   1.332       .  A
C1272      C1273   1.393       .  A
C1273      H1279   1.083       .  S
O1274      C1275   1.331       .  A
C1275      C1276   1.394       .  A
C1276      H1280   1.082       .  S
C1281      C1286   1.380       .  A
C1281      C1282   1.406       .  A
C1281      O1287   1.317   1_554  A
C1282      C1283   1.403       .  A
C1282      H1293   1.082       .  S
C1283      C1292   1.367       .  A
C1283      C1284   1.380       .  A
C1284      C1285   1.402       .  A
C1284      O1290   1.315       .  A
C1285      C1286   1.400       .  A
C1285      H1294   1.082       .  S
C1286      C1289   1.363   1_554  A
O1287      C1288   1.331       .  A
C1288      C1289   1.389       .  A
C1289      H1295   1.083       .  S
O1290      C1291   1.330       .  A
C1291      C1292   1.391       .  A
C1292      H1296   1.082       .  S
C1297      C1302   1.381       .  A
C1297      C1298   1.405       .  A
C1297      O1303   1.319       .  A
C1298      C1299   1.404       .  A
C1298      H1309   1.082       .  S
C1299      C1308   1.365       .  A
C1299      C1300   1.381       .  A
C1300      C1301   1.399       .  A
C1300      O1306   1.313       .  A
C1301      C1302   1.397       .  A
C1301      H1310   1.082       .  S
C1302      C1305   1.357       .  A
O1303      C1304   1.331       .  A
C1304      C1305   1.389       .  A
C1305      H1311   1.082       .  S
O1306      C1307   1.328       .  A
C1307      C1308   1.391       .  A
C1308      H1312   1.082       .  S
C1313      C1318   1.379       .  A
C1313      C1314   1.407       .  A
C1313      O1319   1.312       .  A
C1314      C1315   1.401       .  A
C1314      H1325   1.083       .  S
C1315      C1324   1.374       .  A
C1315      C1316   1.379       .  A
C1316      C1317   1.406       .  A
C1316      O1322   1.310       .  A
C1317      C1318   1.400       .  A
C1317      H1326   1.083       .  S
C1318      C1321   1.371       .  A
O1319      C1320   1.333       .  A
C1320      C1321   1.390       .  A
C1321      H1327   1.082       .  S
O1322      C1323   1.332       .  A
C1323      C1324   1.391       .  A
C1324      H1328   1.082       .  S
C1329      C1334   1.381       .  A
C1329      C1330   1.405       .  A
C1329      O1335   1.321       .  A
C1330      C1331   1.405       .  A
C1330      H1341   1.083       .  S
C1331      C1340   1.363       .  A
C1331      C1332   1.380       .  A
C1332      C1333   1.405       .  A
C1332      O1338   1.322       .  A
C1333      C1334   1.405       .  A
C1333      H1342   1.083       .  S
C1334      C1337   1.363       .  A
O1335      C1336   1.331       .  A
C1336      C1337   1.391       .  A
C1337      H1343   1.083       .  S
O1338      C1339   1.331       .  A
C1339      C1340   1.392       .  A
C1340      H1344   1.083       .  S
C1345      C1350   1.381       .  A
C1345      C1346   1.399       .  A
C1345      O1351   1.315       .  A
C1346      C1347   1.399       .  A
C1346      H1357   1.082       .  S
C1347      C1356   1.355       .  A
C1347      C1348   1.380       .  A
C1348      C1349   1.411       .  A
C1348      O1354   1.327       .  A
C1349      C1350   1.411       .  A
C1349      H1358   1.082       .  S
C1350      C1353   1.372       .  A
O1351      C1352   1.329       .  A
C1352      C1353   1.395       .  A
C1353      H1359   1.082       .  S
O1354      C1355   1.334       .  A
C1355      C1356   1.390       .  A
C1356      H1360   1.083       .  S
C1361      C1366   1.381       .  A
C1361      C1362   1.400       .  A
C1361      O1367   1.320       .  A
C1362      C1363   1.401       .  A
C1362      H1373   1.082       .  S
C1363      C1372   1.355       .  A
C1363      C1364   1.381       .  A
C1364      C1365   1.403       .  A
C1364      O1370   1.323       .  A
C1365      C1366   1.405       .  A
C1365      H1374   1.082       .  S
C1366      C1369   1.359       .  A
O1367      C1368   1.329       .  A
C1368      C1369   1.393       .  A
C1369      H1375   1.082       .  S
O1370      C1371   1.331       .  A
C1371      C1372   1.391       .  A
C1372      H1376   1.082       .  S
C1377      C1382   1.378       .  A
C1377      C1378   1.409       .  A
C1377      O1383   1.319       .  A
C1378      C1379   1.406       .  A
C1378      H1389   1.083       .  S
C1379      C1388   1.372       .  A
C1379      C1380   1.378       .  A
C1380      C1381   1.408       .  A
C1380      O1386   1.318       .  A
C1381      C1382   1.405       .  A
C1381      H1390   1.083       .  S
C1382      C1385   1.370       .  A
O1383      C1384   1.334       .  A
C1384      C1385   1.393       .  A
C1385      H1391   1.083       .  S
O1386      C1387   1.334       .  A
C1387      C1388   1.394       .  A
C1388      H1392   1.082       .  S
C1393      C1398   1.379       .  A
C1393      C1394   1.407       .  A
C1393      O1399   1.322       .  A
C1394      C1395   1.406       .  A
C1394      H1405   1.083       .  S
C1395      C1404   1.368       .  A
C1395      C1396   1.379       .  A
C1396      C1397   1.409       .  A
C1396      O1402   1.322       .  A
C1397      C1398   1.407       .  A
C1397      H1406   1.082       .  S
C1398      C1401   1.368       .  A
O1399      C1400   1.333       .  A
C1400      C1401   1.394       .  A
C1401      H1407   1.082       .  S
O1402      C1403   1.334       .  A
C1403      C1404   1.393       .  A
C1404      H1408   1.083       .  S
C1409      C1414   1.381       .  A
C1409      C1410   1.402       .  A
C1409      O1415   1.317       .  A
C1410      C1411   1.401       .  A
C1410      H1421   1.082       .  S
C1411      C1420   1.361       .  A
C1411      C1412   1.381       .  A
C1412      C1413   1.403       .  A
C1412      O1418   1.317       .  A
C1413      C1414   1.402       .  A
C1413      H1422   1.082       .  S
C1414      C1417   1.361       .  A
O1415      C1416   1.329       .  A
C1416      C1417   1.389       .  A
C1417      H1423   1.082       .  S
O1418      C1419   1.331       .  A
C1419      C1420   1.389       .  A
C1420      H1424   1.083       .  S
C1425      C1430   1.381       .  A
C1425      C1426   1.404       .  A
C1425      O1431   1.316       .  A
C1426      C1427   1.402       .  A
C1426      H1437   1.082       .  S
C1427      C1436   1.364       .  A
C1427      C1428   1.381       .  A
C1428      C1429   1.401       .  A
C1428      O1434   1.314       .  A
C1429      C1430   1.399       .  A
C1429      H1438   1.082       .  S
C1430      C1433   1.361       .  A
O1431      C1432   1.331       .  A
C1432      C1433   1.389       .  A
C1433      H1439   1.082       .  S
O1434      C1435   1.329       .  A
C1435      C1436   1.391       .  A
C1436      H1440   1.082       .  S
C1441      C1446   1.379       .  A
C1441      C1442   1.404   1_655  A
C1441      O1447   1.315       .  A
C1442      C1443   1.401   1_545  A
C1442      H1453   1.083       .  S
C1443      C1452   1.366       .  A
C1443      C1444   1.379   1_455  A
C1444      C1445   1.408       .  A
C1444      O1450   1.318   1_554  A
C1445      C1446   1.405   1_565  A
C1445      H1454   1.083   1_554  S
C1446      C1449   1.371       .  A
O1447      C1448   1.331       .  A
C1448      C1449   1.393       .  A
C1449      H1455   1.083   1_554  S
O1450      C1451   1.334   1_656  A
C1451      C1452   1.391       .  A
C1452      H1456   1.083       .  S
C1457      C1462   1.381       .  A
C1457      C1458   1.405   1_556  A
C1457      O1463   1.318       .  A
C1458      C1459   1.403       .  A
C1458      H1469   1.082       .  S
C1459      C1468   1.365       .  A
C1459      C1460   1.380       .  A
C1460      C1461   1.400       .  A
C1460      O1466   1.314       .  A
C1461      C1462   1.399   1_554  A
C1461      H1470   1.082       .  S
C1462      C1465   1.359       .  A
O1463      C1464   1.331       .  A
C1464      C1465   1.387       .  A
C1465      H1471   1.083       .  S
O1466      C1467   1.329       .  A
C1467      C1468   1.391       .  A
C1468      H1472   1.082       .  S
C1473      C1478   1.380       .  A
C1473      C1474   1.403       .  A
C1473      O1479   1.315       .  A
C1474      C1475   1.400       .  A
C1474      H1485   1.082       .  S
C1475      C1484   1.363       .  A
C1475      C1476   1.380       .  A
C1476      C1477   1.403       .  A
C1476      O1482   1.315       .  A
C1477      C1478   1.401       .  A
C1477      H1486   1.082       .  S
C1478      C1481   1.363       .  A
O1479      C1480   1.330       .  A
C1480      C1481   1.391       .  A
C1481      H1487   1.082       .  S
O1482      C1483   1.330       .  A
C1483      C1484   1.390       .  A
C1484      H1488   1.083       .  S
C1489      C1494   1.381       .  A
C1489      C1490   1.401       .  A
C1489      O1495   1.320       .  A
C1490      C1491   1.401       .  A
C1490      H1501   1.082       .  S
C1491      C1500   1.359       .  A
C1491      C1492   1.381       .  A
C1492      C1493   1.405       .  A
C1492      O1498   1.322       .  A
C1493      C1494   1.405       .  A
C1493      H1502   1.082       .  S
C1494      C1497   1.362       .  A
O1495      C1496   1.329       .  A
C1496      C1497   1.393       .  A
C1497      H1503   1.083       .  S
O1498      C1499   1.331       .  A
C1499      C1500   1.388       .  A
C1500      H1504   1.083       .  S
C1505      C1510   1.381       .  A
C1505      C1506   1.405       .  A
C1505      O1511   1.323       .  A
C1506      C1507   1.405       .  A
C1506      H1517   1.083       .  S
C1507      C1516   1.361       .  A
C1507      C1508   1.380       .  A
C1508      C1509   1.405       .  A
C1508      O1514   1.324       .  A
C1509      C1510   1.406       .  A
C1509      H1518   1.082       .  S
C1510      C1513   1.362       .  A
O1511      C1512   1.331       .  A
C1512      C1513   1.391       .  A
C1513      H1519   1.083       .  S
O1514      C1515   1.332       .  A
C1515      C1516   1.392       .  A
C1516      H1520   1.083       .  S
C1521      C1526   1.381       .  A
C1521      C1522   1.402       .  A
C1521      O1527   1.319       .  A
C1522      C1523   1.402   1_554  A
C1522      H1533   1.082       .  S
C1523      C1532   1.357       .  A
C1523      C1524   1.381       .  A
C1524      C1525   1.401   1_556  A
C1524      O1530   1.320       .  A
C1525      C1526   1.402       .  A
C1525      H1534   1.081       .  S
C1526      C1529   1.358       .  A
O1527      C1528   1.330       .  A
C1528      C1529   1.390       .  A
C1529      H1535   1.082       .  S
O1530      C1531   1.329       .  A
C1531      C1532   1.392       .  A
C1532      H1536   1.082       .  S
C1537      C1542   1.381       .  A
C1537      C1538   1.399       .  A
C1537      O1543   1.317       .  A
C1538      C1539   1.400       .  A
C1538      H1549   1.081       .  S
C1539      C1548   1.356       .  A
C1539      C1540   1.381       .  A
C1540      C1541   1.400       .  A
C1540      O1546   1.317       .  A
C1541      C1542   1.400       .  A
C1541      H1550   1.081       .  S
C1542      C1545   1.356       .  A
O1543      C1544   1.328       .  A
C1544      C1545   1.391       .  A
C1545      H1551   1.082       .  S
O1546      C1547   1.329       .  A
C1547      C1548   1.390       .  A
C1548      H1552   1.082       .  S
C1553      C1558   1.381       .  A
C1553      C1554   1.400       .  A
C1553      O1559   1.315       .  A
C1554      C1555   1.398       .  A
C1554      H1565   1.082       .  S
C1555      C1564   1.359       .  A
C1555      C1556   1.380       .  A
C1556      C1557   1.406       .  A
C1556      O1562   1.320       .  A
C1557      C1558   1.404       .  A
C1557      H1566   1.082       .  S
C1558      C1561   1.365       .  A
O1559      C1560   1.329       .  A
C1560      C1561   1.392       .  A
C1561      H1567   1.082       .  S
O1562      C1563   1.332       .  A
C1563      C1564   1.389       .  A
C1564      H1568   1.082       .  S
C1569      C1574   1.380       .  A
C1569      C1570   1.401       .  A
C1569      O1575   1.316       .  A
C1570      C1571   1.400       .  A
C1570      H1581   1.082       .  S
C1571      C1580   1.360       .  A
C1571      C1572   1.380       .  A
C1572      C1573   1.410       .  A
C1572      O1578   1.324       .  A
C1573      C1574   1.409       .  A
C1573      H1582   1.081       .  S
C1574      C1577   1.372       .  A
O1575      C1576   1.330       .  A
C1576      C1577   1.394       .  A
C1577      H1583   1.082       .  S
O1578      C1579   1.334       .  A
C1579      C1580   1.390       .  A
C1580      H1584   1.083       .  S
C1585      C1590   1.380       .  A
C1585      C1586   1.404       .  A
C1585      O1591   1.324       .  A
C1586      C1587   1.406       .  A
C1586      H1597   1.082       .  S
C1587      C1596   1.360       .  A
C1587      C1588   1.379       .  A
C1588      C1589   1.409       .  A
C1588      O1594   1.328       .  A
C1589      C1590   1.410       .  A
C1589      H1598   1.082       .  S
C1590      C1593   1.364       .  A
O1591      C1592   1.332       .  A
C1592      C1593   1.397       .  A
C1593      H1599   1.083       .  S
O1594      C1595   1.335       .  A
C1595      C1596   1.395       .  A
C1596      H1600   1.083       .  S
C1601      C1606   1.381       .  A
C1601      C1602   1.405       .  A
C1601      O1607   1.322       .  A
C1602      C1603   1.405       .  A
C1602      H1613   1.082       .  S
C1603      C1612   1.362       .  A
C1603      C1604   1.381       .  A
C1604      C1605   1.399       .  A
C1604      O1610   1.317       .  A
C1605      C1606   1.399       .  A
C1605      H1614   1.082       .  S
C1606      C1609   1.356       .  A
O1607      C1608   1.332       .  A
C1608      C1609   1.389       .  A
C1609      H1615   1.083       .  S
O1610      C1611   1.328       .  A
C1611      C1612   1.393       .  A
C1612      H1616   1.082   1_554  S
C1617      C1622   1.381       .  A
C1617      C1618   1.400       .  A
C1617      O1623   1.313       .  A
C1618      C1619   1.398       .  A
C1618      H1629   1.082       .  S
C1619      C1628   1.361       .  A
C1619      C1620   1.380       .  A
C1620      C1621   1.406       .  A
C1620      O1626   1.317       .  A
C1621      C1622   1.404       .  A
C1621      H1630   1.082       .  S
C1622      C1625   1.367       .  A
O1623      C1624   1.329       .  A
C1624      C1625   1.392       .  A
C1625      H1631   1.083       .  S
O1626      C1627   1.332       .  A
C1627      C1628   1.389       .  A
C1628      H1632   1.082       .  S
C1633      C1638   1.381       .  A
C1633      C1634   1.400       .  A
C1633      O1639   1.314       .  A
C1634      C1635   1.398       .  A
C1634      H1645   1.082       .  S
C1635      C1644   1.358       .  A
C1635      C1636   1.381       .  A
C1636      C1637   1.401       .  A
C1636      O1642   1.315       .  A
C1637      C1638   1.400       .  A
C1637      H1646   1.082       .  S
C1638      C1641   1.361       .  A
O1639      C1640   1.329       .  A
C1640      C1641   1.390       .  A
C1641      H1647   1.082       .  S
O1642      C1643   1.329       .  A
C1643      C1644   1.388       .  A
C1644      H1648   1.083       .  S
C1649      C1654   1.380       .  A
C1649      C1650   1.401       .  A
C1649      O1655   1.316       .  A
C1650      C1651   1.400       .  A
C1650      H1661   1.082       .  S
C1651      C1660   1.360       .  A
C1651      C1652   1.380       .  A
C1652      C1653   1.407       .  A
C1652      O1658   1.321       .  A
C1653      C1654   1.405       .  A
C1653      H1662   1.082       .  S
C1654      C1657   1.366       .  A
O1655      C1656   1.330       .  A
C1656      C1657   1.392       .  A
C1657      H1663   1.082       .  S
O1658      C1659   1.333       .  A
C1659      C1660   1.389       .  A
C1660      H1664   1.083       .  S
C1665      C1670   1.380       .  A
C1665      C1666   1.405       .  A
C1665      O1671   1.325       .  A
C1666      C1667   1.407       .  A
C1666      H1677   1.082       .  S
C1667      C1676   1.362       .  A
C1667      C1668   1.380       .  A
C1668      C1669   1.404       .  A
C1668      O1674   1.323       .  A
C1669      C1670   1.405       .  A
C1669      H1678   1.082       .  S
C1670      C1673   1.359       .  A
O1671      C1672   1.332       .  A
C1672      C1673   1.393       .  A
C1673      H1679   1.083       .  S
O1674      C1675   1.332       .  A
C1675      C1676   1.394       .  A
C1676      H1680   1.082       .  S
C1681      C1686   1.380       .  A
C1681      C1682   1.402       .  A
C1681      O1687   1.315       .  A
C1682      C1683   1.400       .  A
C1682      H1693   1.082       .  S
C1683      C1692   1.361       .  A
C1683      C1684   1.380       .  A
C1684      C1685   1.405       .  A
C1684      O1690   1.318       .  A
C1685      C1686   1.403       .  A
C1685      H1694   1.082       .  S
C1686      C1689   1.365       .  A
O1687      C1688   1.330       .  A
C1688      C1689   1.392       .  A
C1689      H1695   1.082       .  S
O1690      C1691   1.332       .  A
C1691      C1692   1.390       .  A
C1692      H1696   1.083       .  S
C1697      C1702   1.380       .  A
C1697      C1698   1.403       .  A
C1697      O1703   1.317       .  A
C1698      C1699   1.402       .  A
C1698      H1709   1.082       .  S
C1699      C1708   1.360       .  A
C1699      C1700   1.381       .  A
C1700      C1701   1.404       .  A
C1700      O1706   1.319       .  A
C1701      C1702   1.403       .  A
C1701      H1710   1.081       .  S
C1702      C1705   1.364       .  A
O1703      C1704   1.331       .  A
C1704      C1705   1.390       .  A
C1705      H1711   1.082       .  S
O1706      C1707   1.331       .  A
C1707      C1708   1.389       .  A
C1708      H1712   1.083       .  S
C1713      C1718   1.380       .  A
C1713      C1714   1.409       .  A
C1713      O1719   1.325       .  A
C1714      C1715   1.409       .  A
C1714      H1725   1.082       .  S
C1715      C1724   1.369       .  A
C1715      C1716   1.381       .  A
C1716      C1717   1.396       .  A
C1716      O1722   1.313       .  A
C1717      C1718   1.396       .  A
C1717      H1726   1.083       .  S
C1718      C1721   1.352       .  A
O1719      C1720   1.334       .  A
C1720      C1721   1.388       .  A
C1721      H1727   1.083       .  S
O1722      C1723   1.327       .  A
C1723      C1724   1.393       .  A
C1724      H1728   1.082       .  S
C1729      C1734   1.378       .  A
C1729      C1730   1.411   1_556  A
C1729      O1735   1.318   1_556  A
C1730      C1731   1.407   1_554  A
C1730      H1741   1.082       .  S
C1731      C1740   1.377       .  A
C1731      C1732   1.378       .  A
C1732      C1733   1.408       .  A
C1732      O1738   1.315       .  A
C1733      C1734   1.403       .  A
C1733      H1742   1.082       .  S
C1734      C1737   1.373       .  A
O1735      C1736   1.335   1_554  A
C1736      C1737   1.392       .  A
C1737      H1743   1.082       .  S
O1738      C1739   1.335       .  A
C1739      C1740   1.394       .  A
C1740      H1744   1.082   1_556  S
C1745      C1750   1.381       .  A
C1745      C1746   1.406       .  A
C1745      O1751   1.327       .  A
C1746      C1747   1.408   1_554  A
C1746      H1757   1.082       .  S
C1747      C1756   1.360       .  A
C1747      C1748   1.381       .  A
C1748      C1749   1.400   1_556  A
C1748      O1754   1.322       .  A
C1749      C1750   1.402       .  A
C1749      H1758   1.082       .  S
C1750      C1753   1.353       .  A
O1751      C1752   1.333       .  A
C1752      C1753   1.392       .  A
C1753      H1759   1.083       .  S
O1754      C1755   1.329       .  A
C1755      C1756   1.395       .  A
C1756      H1760   1.082       .  S
C1761      C1766   1.380       .  A
C1761      C1762   1.402       .  A
C1761      O1767   1.312       .  A
C1762      C1763   1.399       .  A
C1762      H1773   1.083       .  S
C1763      C1772   1.364       .  A
C1763      C1764   1.380       .  A
C1764      C1765   1.409       .  A
C1764      O1770   1.318       .  A
C1765      C1766   1.406       .  A
C1765      H1774   1.082       .  S
C1766      C1769   1.372       .  A
O1767      C1768   1.330       .  A
C1768      C1769   1.393       .  A
C1769      H1775   1.082       .  S
O1770      C1771   1.334       .  A
C1771      C1772   1.389       .  A
C1772      H1776   1.083       .  S
C1777      C1782   1.381       .  A
C1777      C1778   1.397       .  A
C1777      O1783   1.312       .  A
C1778      C1779   1.396       .  A
C1778      H1789   1.082       .  S
C1779      C1788   1.354       .  A
C1779      C1780   1.380       .  A
C1780      C1781   1.412       .  A
C1780      O1786   1.326       .  A
C1781      C1782   1.411       .  A
C1781      H1790   1.082       .  S
C1782      C1785   1.373       .  A
O1783      C1784   1.327       .  A
C1784      C1785   1.395       .  A
C1785      H1791   1.082       .  S
O1786      C1787   1.335       .  A
C1787      C1788   1.388       .  A
C1788      H1792   1.083       .  S
C1793      C1798   1.379       .  A
C1793      C1794   1.404       .  A
C1793      O1799   1.317       .  A
C1794      C1795   1.402       .  A
C1794      H1805   1.083       .  S
C1795      C1804   1.365       .  A
C1795      C1796   1.379       .  A
C1796      C1797   1.411       .  A
C1796      O1802   1.324       .  A
C1797      C1798   1.409       .  A
C1797      H1806   1.082       .  S
C1798      C1801   1.372       .  A
O1799      C1800   1.331       .  A
C1800      C1801   1.394       .  A
C1801      H1807   1.082       .  S
O1802      C1803   1.335       .  A
C1803      C1804   1.391       .  A
C1804      H1808   1.083       .  S
C1809      C1814   1.381       .  A
C1809      C1810   1.404       .  A
C1809      O1815   1.318       .  A
C1810      C1811   1.403       .  A
C1810      H1821   1.082       .  S
C1811      C1820   1.363       .  A
C1811      C1812   1.381       .  A
C1812      C1813   1.399       .  A
C1812      O1818   1.315       .  A
C1813      C1814   1.398       .  A
C1813      H1822   1.082       .  S
C1814      C1817   1.357       .  A
O1815      C1816   1.331       .  A
C1816      C1817   1.388       .  A
C1817      H1823   1.082       .  S
O1818      C1819   1.328       .  A
C1819      C1820   1.390       .  A
C1820      H1824   1.082       .  S
C1825      C1830   1.381       .  A
C1825      C1826   1.402       .  A
C1825      O1831   1.320       .  A
C1826      C1827   1.403       .  A
C1826      H1837   1.082       .  S
C1827      C1836   1.359       .  A
C1827      C1828   1.381       .  A
C1828      C1829   1.401       .  A
C1828      O1834   1.319       .  A
C1829      C1830   1.401       .  A
C1829      H1838   1.082       .  S
C1830      C1833   1.357       .  A
O1831      C1832   1.330       .  A
C1832      C1833   1.390       .  A
C1833      H1839   1.083       .  S
O1834      C1835   1.329       .  A
C1835      C1836   1.391       .  A
C1836      H1840   1.083       .  S
C1841      C1846   1.380       .  A
C1841      C1842   1.403       .  A
C1841      O1847   1.316       .  A
C1842      C1843   1.402       .  A
C1842      H1853   1.082       .  S
C1843      C1852   1.361       .  A
C1843      C1844   1.380       .  A
C1844      C1845   1.405       .  A
C1844      O1850   1.319       .  A
C1845      C1846   1.403       .  A
C1845      H1854   1.082       .  S
C1846      C1849   1.365       .  A
O1847      C1848   1.331       .  A
C1848      C1849   1.391       .  A
C1849      H1855   1.082       .  S
O1850      C1851   1.331       .  A
C1851      C1852   1.390       .  A
C1852      H1856   1.083       .  S
C1857      C1862   1.380       .  A
C1857      C1858   1.405   1_556  A
C1857      O1863   1.317       .  A
C1858      C1859   1.403       .  A
C1858      H1869   1.082       .  S
C1859      C1868   1.364       .  A
C1859      C1860   1.380       .  A
C1860      C1861   1.404   1_554  A
C1860      O1866   1.317       .  A
C1861      C1862   1.402       .  A
C1861      H1870   1.082       .  S
C1862      C1865   1.364       .  A
O1863      C1864   1.332       .  A
C1864      C1865   1.391       .  A
C1865      H1871   1.082       .  S
O1866      C1867   1.331       .  A
C1867      C1868   1.392       .  A
C1868      H1872   1.083       .  S
C1873      C1878   1.380       .  A
C1873      C1874   1.408       .  A
C1873      O1879   1.323       .  A
C1874      C1875   1.407       .  A
C1874      H1885   1.082       .  S
C1875      C1884   1.368       .  A
C1875      C1876   1.381       .  A
C1876      C1877   1.398       .  A
C1876      O1882   1.313       .  A
C1877      C1878   1.397       .  A
C1877      H1886   1.083       .  S
C1878      C1881   1.354       .  A
O1879      C1880   1.333       .  A
C1880      C1881   1.388       .  A
C1881      H1887   1.082       .  S
O1882      C1883   1.328       .  A
C1883      C1884   1.392       .  A
C1884      H1888   1.082       .  S
C1889      C1894   1.381       .  A
C1889      C1890   1.404       .  A
C1889      O1895   1.325       .  A
C1890      C1891   1.406       .  A
C1890      H1901   1.082       .  S
C1891      C1900   1.357       .  A
C1891      C1892   1.380       .  A
C1892      C1893   1.403       .  A
C1892      O1898   1.325       .  A
C1893      C1894   1.406       .  A
C1893      H1902   1.082       .  S
C1894      C1897   1.357       .  A
O1895      C1896   1.332       .  A
C1896      C1897   1.393       .  A
C1897      H1903   1.083       .  S
O1898      C1899   1.332       .  A
C1899      C1900   1.395       .  A
C1900      H1904   1.083       .  S
C1905      C1910   1.381       .  A
C1905      C1906   1.402       .  A
C1905      O1911   1.320       .  A
C1906      C1907   1.403       .  A
C1906      H1917   1.082       .  S
C1907      C1916   1.358       .  A
C1907      C1908   1.381       .  A
C1908      C1909   1.400       .  A
C1908      O1914   1.319       .  A
C1909      C1910   1.401       .  A
C1909      H1918   1.082       .  S
C1910      C1913   1.356       .  A
O1911      C1912   1.330       .  A
C1912      C1913   1.390       .  A
C1913      H1919   1.082       .  S
O1914      C1915   1.329       .  A
C1915      C1916   1.392       .  A
C1916      H1920   1.082       .  S
C1921      C1926   1.381       .  A
C1921      C1922   1.404       .  A
C1921      O1927   1.322       .  A
C1922      C1923   1.405   1_556  A
C1922      H1933   1.081       .  S
C1923      C1932   1.361       .  A
C1923      C1924   1.381       .  A
C1924      C1925   1.401       .  A
C1924      O1930   1.318       .  A
C1925      C1926   1.401   1_554  A
C1925      H1934   1.082       .  S
C1926      C1929   1.356       .  A
O1927      C1928   1.331       .  A
C1928      C1929   1.391       .  A
C1929      H1935   1.083       .  S
O1930      C1931   1.329       .  A
C1931      C1932   1.392       .  A
C1932      H1936   1.082       .  S
C1937      C1942   1.381       .  A
C1937      C1938   1.403       .  A
C1937      O1943   1.321       .  A
C1938      C1939   1.403       .  A
C1938      H1949   1.082       .  S
C1939      C1948   1.360       .  A
C1939      C1940   1.381       .  A
C1940      C1941   1.403       .  A
C1940      O1946   1.321       .  A
C1941      C1942   1.404       .  A
C1941      H1950   1.082       .  S
C1942      C1945   1.360       .  A
O1943      C1944   1.331       .  A
C1944      C1945   1.392       .  A
C1945      H1951   1.082       .  S
O1946      C1947   1.331       .  A
C1947      C1948   1.392       .  A
C1948      H1952   1.083       .  S
C1953      C1958   1.380       .  A
C1953      C1954   1.405       .  A
C1953      O1959   1.322       .  A
C1954      C1955   1.406       .  A
C1954      H1965   1.083       .  S
C1955      C1964   1.363       .  A
C1955      C1956   1.380       .  A
C1956      C1957   1.405       .  A
C1956      O1962   1.323       .  A
C1957      C1958   1.406       .  A
C1957      H1966   1.082       .  S
C1958      C1961   1.363       .  A
O1959      C1960   1.332       .  A
C1960      C1961   1.391       .  A
C1961      H1967   1.083       .  S
O1962      C1963   1.332       .  A
C1963      C1964   1.392       .  A
C1964      H1968   1.083       .  S
C1969      C1974   1.380       .  A
C1969      C1970   1.406       .  A
C1969      O1975   1.325       .  A
C1970      C1971   1.407       .  A
C1970      H1981   1.082       .  S
C1971      C1980   1.363       .  A
C1971      C1972   1.380       .  A
C1972      C1973   1.404       .  A
C1972      O1978   1.323       .  A
C1973      C1974   1.405       .  A
C1973      H1982   1.082       .  S
C1974      C1977   1.360       .  A
O1975      C1976   1.332       .  A
C1976      C1977   1.394       .  A
C1977      H1983   1.083       .  S
O1978      C1979   1.332       .  A
C1979      C1980   1.394       .  A
C1980      H1984   1.082       .  S
C1985      C1990   1.381   1_556  A
C1985      C1986   1.399   1_556  A
C1985      O1991   1.317       .  A
C1986      C1987   1.399       .  A
C1986      H1997   1.082       .  S
C1987      C1996   1.355       .  A
C1987      C1988   1.381       .  A
C1988      C1989   1.404       .  A
C1988      O1994   1.321       .  A
C1989      C1990   1.405       .  A
C1989      H1998   1.081       .  S
C1990      C1993   1.362   1_554  A
O1991      C1992   1.328       .  A
C1992      C1993   1.392       .  A
C1993      H1999   1.082       .  S
O1994      C1995   1.331       .  A
C1995      C1996   1.389       .  A
C1996      H2000   1.083       .  S
C2001      C2006   1.382       .  A
C2001      C2002   1.397       .  A
C2001      O2007   1.316       .  A
C2002      C2003   1.398       .  A
C2002      H2013   1.082       .  S
C2003      C2012   1.352       .  A
C2003      C2004   1.381       .  A
C2004      C2005   1.401       .  A
C2004      O2010   1.320       .  A
C2005      C2006   1.402       .  A
C2005      H2014   1.081       .  S
C2006      C2009   1.357       .  A
O2007      C2008   1.327       .  A
C2008      C2009   1.391       .  A
C2009      H2015   1.082       .  S
O2010      C2011   1.329       .  A
C2011      C2012   1.390       .  A
C2012      H2016   1.083       .  S
C2017      C2022   1.380       .  A
C2017      C2018   1.401       .  A
C2017      O2023   1.314       .  A
C2018      C2019   1.399       .  A
C2018      H2029   1.082       .  S
C2019      C2028   1.360       .  A
C2019      C2020   1.380       .  A
C2020      C2021   1.407       .  A
C2020      O2026   1.319       .  A
C2021      C2022   1.405       .  A
C2021      H2030   1.082       .  S
C2022      C2025   1.368       .  A
O2023      C2024   1.329       .  A
C2024      C2025   1.393       .  A
C2025      H2031   1.082       .  S
O2026      C2027   1.332       .  A
C2027      C2028   1.389       .  A
C2028      H2032   1.082       .  S
C2033      C2038   1.381       .  A
C2033      C2034   1.404       .  A
C2033      O2039   1.322       .  A
C2034      C2035   1.405       .  A
C2034      H2045   1.082       .  S
C2035      C2044   1.360       .  A
C2035      C2036   1.381       .  A
C2036      C2037   1.399       .  A
C2036      O2042   1.318       .  A
C2037      C2038   1.400       .  A
C2037      H2046   1.082       .  S
C2038      C2041   1.355       .  A
O2039      C2040   1.331       .  A
C2040      C2041   1.390       .  A
C2041      H2047   1.083       .  S
O2042      C2043   1.329       .  A
C2043      C2044   1.392       .  A
C2044      H2048   1.082   1_556  S
C2049      C2054   1.378       .  A
C2049      C2050   1.410       .  A
C2049      O2055   1.315       .  A
C2050      C2051   1.404       .  A
C2050      H2061   1.082       .  S
C2051      C2060   1.376       .  A
C2051      C2052   1.378       .  A
C2052      C2053   1.412       .  A
C2052      O2058   1.317       .  A
C2053      C2054   1.406       .  A
C2053      H2062   1.082       .  S
C2054      C2057   1.378       .  A
O2055      C2056   1.335       .  A
C2056      C2057   1.395       .  A
C2057      H2063   1.082       .  S
O2058      C2059   1.336       .  A
C2059      C2060   1.393       .  A
C2060      H2064   1.082       .  S
C2065      C2070   1.380       .  A
C2065      C2066   1.404       .  A
C2065      O2071   1.322       .  A
C2066      C2067   1.404       .  A
C2066      H2077   1.082       .  S
C2067      C2076   1.360       .  A
C2067      C2068   1.380       .  A
C2068      C2069   1.407       .  A
C2068      O2074   1.325       .  A
C2069      C2070   1.408       .  A
C2069      H2078   1.082       .  S
C2070      C2073   1.364       .  A
O2071      C2072   1.332       .  A
C2072      C2073   1.394       .  A
C2073      H2079   1.083       .  S
O2074      C2075   1.332       .  A
C2075      C2076   1.392       .  A
C2076      H2080   1.082       .  S
C2081      C2086   1.380       .  A
C2081      C2082   1.401   1_655  A
C2081      O2087   1.313   1_655  A
C2082      C2083   1.398   1_455  A
C2082      H2093   1.082       .  S
C2083      C2092   1.362   1_655  A
C2083      C2084   1.380       .  A
C2084      C2085   1.407       .  A
C2084      O2090   1.318       .  A
C2085      C2086   1.404       .  A
C2085      H2094   1.082       .  S
C2086      C2089   1.370       .  A
O2087      C2088   1.330   1_455  A
C2088      C2089   1.393       .  A
C2089      H2095   1.082       .  S
O2090      C2091   1.332       .  A
C2091      C2092   1.389   1_655  A
C2092      H2096   1.083       .  S
C2097      C2102   1.380       .  A
C2097      C2098   1.405   1_655  A
C2097      O2103   1.322   1_655  A
C2098      C2099   1.405   1_455  A
C2098      H2109   1.081       .  S
C2099      C2108   1.364   1_655  A
C2099      C2100   1.380       .  A
C2100      C2101   1.403       .  A
C2100      O2106   1.318       .  A
C2101      C2102   1.402       .  A
C2101      H2110   1.082       .  S
C2102      C2105   1.360       .  A
O2103      C2104   1.332   1_455  A
C2104      C2105   1.392       .  A
C2105      H2111   1.083       .  S
O2106      C2107   1.330       .  A
C2107      C2108   1.392   1_655  A
C2108      H2112   1.082       .  S
C2113      C2118   1.380       .  A
C2113      C2114   1.404       .  A
C2113      O2119   1.323       .  A
C2114      C2115   1.405       .  A
C2114      H2125   1.083       .  S
C2115      C2124   1.360       .  A
C2115      C2116   1.380       .  A
C2116      C2117   1.406       .  A
C2116      O2122   1.325       .  A
C2117      C2118   1.407       .  A
C2117      H2126   1.082       .  S
C2118      C2121   1.364       .  A
O2119      C2120   1.332       .  A
C2120      C2121   1.393       .  A
C2121      H2127   1.083       .  S
O2122      C2123   1.333       .  A
C2123      C2124   1.391       .  A
C2124      H2128   1.082       .  S
C2129      C2134   1.381       .  A
C2129      C2130   1.403       .  A
C2129      O2135   1.317       .  A
C2130      C2131   1.401       .  A
C2130      H2141   1.082       .  S
C2131      C2140   1.362       .  A
C2131      C2132   1.380       .  A
C2132      C2133   1.405       .  A
C2132      O2138   1.319       .  A
C2133      C2134   1.404       .  A
C2133      H2142   1.082       .  S
C2134      C2137   1.365       .  A
O2135      C2136   1.330       .  A
C2136      C2137   1.391       .  A
C2137      H2143   1.083       .  S
O2138      C2139   1.331       .  A
C2139      C2140   1.389       .  A
C2140      H2144   1.082       .  S
C2145      C2150   1.381       .  A
C2145      C2146   1.399       .  A
C2145      O2151   1.317       .  A
C2146      C2147   1.400       .  A
C2146      H2157   1.082       .  S
C2147      C2156   1.356       .  A
C2147      C2148   1.381       .  A
C2148      C2149   1.402       .  A
C2148      O2154   1.319       .  A
C2149      C2150   1.402       .  A
C2149      H2158   1.082       .  S
C2150      C2153   1.359       .  A
O2151      C2152   1.328       .  A
C2152      C2153   1.391       .  A
C2153      H2159   1.083       .  S
O2154      C2155   1.330       .  A
C2155      C2156   1.389       .  A
C2156      H2160   1.082       .  S
C2161      C2166   1.381       .  A
C2161      C2162   1.400       .  A
C2161      O2167   1.312       .  A
C2162      C2163   1.397       .  A
C2162      H2173   1.082       .  S
C2163      C2172   1.359       .  A
C2163      C2164   1.381       .  A
C2164      C2165   1.404   1_655  A
C2164      O2170   1.315       .  A
C2165      C2166   1.401   1_455  A
C2165      H2174   1.082       .  S
C2166      C2169   1.364   1_655  A
O2167      C2168   1.328       .  A
C2168      C2169   1.391   1_655  A
C2169      H2175   1.082       .  S
O2170      C2171   1.331       .  A
C2171      C2172   1.388       .  A
C2172      H2176   1.083       .  S
C2177      C2182   1.381       .  A
C2177      C2178   1.401       .  A
C2177      O2183   1.315       .  A
C2178      C2179   1.400       .  A
C2178      H2189   1.082   1_655  S
C2179      C2188   1.359       .  A
C2179      C2180   1.381       .  A
C2180      C2181   1.403       .  A
C2180      O2186   1.317       .  A
C2181      C2182   1.402       .  A
C2181      H2190   1.082       .  S
C2182      C2185   1.362       .  A
O2183      C2184   1.329       .  A
C2184      C2185   1.391       .  A
C2185      H2191   1.082       .  S
O2186      C2187   1.330       .  A
C2187      C2188   1.389       .  A
C2188      H2192   1.083   1_655  S
C2193      C2198   1.380       .  A
C2193      C2194   1.405       .  A
C2193      O2199   1.323       .  A
C2194      C2195   1.406       .  A
C2194      H2205   1.082       .  S
C2195      C2204   1.362       .  A
C2195      C2196   1.380       .  A
C2196      C2197   1.406       .  A
C2196      O2202   1.324       .  A
C2197      C2198   1.407       .  A
C2197      H2206   1.083       .  S
C2198      C2201   1.363       .  A
O2199      C2200   1.332       .  A
C2200      C2201   1.392       .  A
C2201      H2207   1.083       .  S
O2202      C2203   1.333       .  A
C2203      C2204   1.392       .  A
C2204      H2208   1.083       .  S
C2209      C2214   1.381       .  A
C2209      C2210   1.404       .  A
C2209      O2215   1.324       .  A
C2210      C2211   1.405       .  A
C2210      H2221   1.082       .  S
C2211      C2220   1.360       .  A
C2211      C2212   1.381       .  A
C2212      C2213   1.402       .  A
C2212      O2218   1.322       .  A
C2213      C2214   1.404       .  A
C2213      H2222   1.082       .  S
C2214      C2217   1.357       .  A
O2215      C2216   1.331       .  A
C2216      C2217   1.392       .  A
C2217      H2223   1.083       .  S
O2218      C2219   1.331       .  A
C2219      C2220   1.393       .  A
C2220      H2224   1.082       .  S
C2225      C2230   1.378   1_655  A
C2225      C2226   1.410       .  A
C2225      O2231   1.316       .  A
C2226      C2227   1.405   1_545  A
C2226      H2237   1.082       .  S
C2227      C2236   1.376       .  A
C2227      C2228   1.378       .  A
C2228      C2229   1.409   1_655  A
C2228      O2234   1.316       .  A
C2229      C2230   1.404   1_565  A
C2229      H2238   1.082       .  S
C2230      C2233   1.374       .  A
O2231      C2232   1.335       .  A
C2232      C2233   1.393   1_655  A
C2233      H2239   1.082       .  S
O2234      C2235   1.334       .  A
C2235      C2236   1.394       .  A
C2236      H2240   1.082       .  S
