geometry optimzed in LAMMPS
_audit_creation_date              2020-11-30 
_audit_creation_method            'lammps2cif' 
_symmetry_space_group_name_H-M    'P1' 
_symmetry_Int_Tables_number       1 
_symmetry_cell_setting            triclinic 
loop_ 
_symmetry_equiv_pos_as_xyz 
  x,y,z 
_cell_length_a                    29.79771364 
_cell_length_b                    29.79790734230518 
_cell_length_c                    27.513523330638527 
_cell_angle_alpha                 90.55780882304428 
_cell_angle_beta                  90.51182181321659 
_cell_angle_gamma                 119.60050833218403 
loop_ 
_atom_site_label 
_atom_site_type_symbol 
_atom_site_fract_x 
_atom_site_fract_y 
_atom_site_fract_z 
_atom_site_charge 
In1        In  0.02778900  0.68761748  0.94537593     1.36900
C2          C  0.01440912  0.67561801  0.04126012     0.77600
O3          O  0.99402585  0.73882449  0.96037195    -0.60800
O4          O  0.95197153  0.67166956  0.91590454    -0.51700
C5          C  0.10251270  0.75474317  0.88822079     0.70300
O6          O  0.10985074  0.75127221  0.93301245    -0.46600
C7          C  0.01928383  0.59730347  0.92137676     0.75000
O8          O  0.05491645  0.71231199  0.02354232    -0.58400
O9          O  0.98698218  0.61059476  0.90821690    -0.48500
O10         O  0.98339507  0.64435891  0.01008046    -0.54900
C11         C  0.95190659  0.70834182  0.93916397     0.85200
O12         O  0.05721019  0.72411327  0.87345763    -0.56800
O13         O  0.05783457  0.63173050  0.94470415    -0.60100
In14       In  0.97099294  0.29989879  0.95951792     1.36900
C15         C  0.97257000  0.31137124  0.05568393     0.77600
O16         O  0.00664723  0.25300235  0.98468295    -0.60800
O17         O  0.05271918  0.32217219  0.94672537    -0.51700
C18         C  0.90479736  0.23008011  0.89494908     0.70300
O19         O  0.89133353  0.23562411  0.93700721    -0.46600
C20         C  0.97709416  0.38740839  0.92997453     0.75000
O21         O  0.93664491  0.27225982  0.03387585    -0.58400
O22         O  0.00992301  0.37404120  0.91916384    -0.48500
O23         O  0.00379506  0.34550381  0.02775755    -0.54900
C24         C  0.05135936  0.28651832  0.97205963     0.85200
O25         O  0.95205018  0.25937502  0.88693279    -0.56800
O26         O  0.93962202  0.35434415  0.95398960    -0.60100
In27       In  0.02230333  0.32258293  0.35931023     1.36900
C28         C  0.01497801  0.33106309  0.26379404     0.77600
O29         O  0.99893196  0.24349319  0.33209444    -0.60800
O30         O  0.94756485  0.25343720  0.37874376    -0.51700
C31         C  0.09345169  0.32638819  0.42178135     0.70300
O32         O  0.10316975  0.33926862  0.37784154    -0.46600
C33         C  0.01229422  0.40297681  0.38580766     0.75000
O34         O  0.05620568  0.33769488  0.28413971    -0.58400
O35         O  0.97814638  0.35706007  0.39440643    -0.48500
O36         O  0.97960001  0.32338598  0.29298346    -0.54900
C37         C  0.95498733  0.22369102  0.35103195     0.85200
O38         O  0.04736423  0.31178666  0.43309397    -0.56800
O39         O  0.05189073  0.40700429  0.36561388    -0.60100
In40       In  0.97090915  0.65490509  0.34564500     1.36900
C41         C  0.97755021  0.65062201  0.24903414     0.77600
O42         O  0.00836713  0.73942239  0.33110130    -0.60800
O43         O  0.05241107  0.71001392  0.36554184    -0.51700
C44         C  0.90032742  0.65221473  0.40684275     0.70300
O45         O  0.88823122  0.63130764  0.36497240    -0.46600
C46         C  0.97640705  0.57436900  0.37754747     0.75000
O47         O  0.94450512  0.65946424  0.26906264    -0.58400
O48         O  0.00945024  0.62030542  0.38864604    -0.48500
O49         O  0.00245859  0.63881106  0.27836987    -0.54900
C50         C  0.05204966  0.74814076  0.34635273     0.85200
O51         O  0.94818902  0.67687536  0.41503964    -0.56800
O52         O  0.93940261  0.56974428  0.35121296    -0.60100
In53       In  0.30202822  0.31812679  0.63047166     1.36900
C54         C  0.31708514  0.32574129  0.72671372     0.77600
O55         O  0.25022344  0.23656879  0.65289773    -0.60800
O56         O  0.31524125  0.25283000  0.60980285    -0.51700
C57         C  0.23385169  0.32250952  0.56890101     0.70300
O58         O  0.23997453  0.33875937  0.61241241    -0.46600
C59         C  0.38976208  0.39797862  0.60126322     0.75000
O60         O  0.27802075  0.32491219  0.70700855    -0.58400
O61         O  0.37713661  0.35173640  0.59116220    -0.48500
O62         O  0.34956736  0.32753007  0.69678650    -0.54900
C63         C  0.27785369  0.22004955  0.63413938     0.85200
O64         O  0.26184520  0.30328938  0.55787346    -0.56800
O65         O  0.35668935  0.40297265  0.62548099    -0.60100
In66       In  0.68555733  0.65154085  0.60865819     1.36900
C67         C  0.68122357  0.65171393  0.70558756     0.77600
O68         O  0.73514341  0.73549417  0.62490299    -0.60800
O69         O  0.66236467  0.71039114  0.59089910    -0.51700
C70         C  0.74984998  0.64424786  0.54529526     0.70300
O71         O  0.74677099  0.63020564  0.58894789    -0.46600
C72         C  0.59570096  0.56919237  0.58676565     0.75000
O73         O  0.72124831  0.65874663  0.68355541    -0.58400
O74         O  0.60743971  0.61385895  0.57270812    -0.48500
O75         O  0.64329538  0.64052128  0.67773734    -0.54900
C76         C  0.70168240  0.74702295  0.61142576     0.85200
O77         O  0.72079798  0.66242444  0.53498704    -0.56800
O78         O  0.63126484  0.56670605  0.60976741    -0.60100
In79       In  0.32849521  0.29655431  0.03231803     1.36900
C80         C  0.32936985  0.30665638  0.93604744     0.77600
O81         O  0.24371691  0.24816928  0.01649935    -0.60800
O82         O  0.27099127  0.31860556  0.05631207    -0.51700
C83         C  0.33219867  0.22798227  0.09255547     0.70300
O84         O  0.34077186  0.22907096  0.04760878    -0.46600
C85         C  0.41196611  0.38627395  0.05133165     0.75000
O86         O  0.33076368  0.26890172  0.95540187    -0.58400
O87         O  0.36848928  0.37391726  0.06872625    -0.48500
O88         O  0.33040949  0.33922183  0.96597296    -0.54900
C89         C  0.23361708  0.28114115  0.03459602     0.85200
O90         O  0.32213109  0.26249006  0.10628562    -0.56800
O91         O  0.41391939  0.35028638  0.02849348    -0.60100
In92       In  0.66751546  0.68070336  0.00832775     1.36900
C93         C  0.65849416  0.67290477  0.91219540     0.77600
O94         O  0.74912738  0.73032728  0.98449051    -0.60800
O95         O  0.72942497  0.66132295  0.02232773    -0.51700
C96         C  0.66866045  0.74860196  0.07351520     0.70300
O97         O  0.64828085  0.74204728  0.03167696    -0.46600
C98         C  0.58887544  0.59045796  0.03494873     0.75000
O99         O  0.66031502  0.71097529  0.93485464    -0.58400
O100        O  0.63534304  0.60427642  0.04462975    -0.48500
O101        O  0.65611800  0.63781702  0.93882409    -0.54900
C102        C  0.76240016  0.69806427  0.99760145     0.85200
O103        O  0.68912541  0.72106432  0.08122194    -0.56800
O104        O  0.58267409  0.62456071  0.01384317    -0.60100
In105      In  0.31393405  0.96845677  0.68815910     1.36900
C106        C  0.32659365  0.97463364  0.59277648     0.77600
O107        O  0.25838332  0.99341455  0.66410037    -0.60800
O108        O  0.32010400  0.04333397  0.71206140    -0.51700
C109        C  0.24856245  0.89661009  0.74877936     0.70300
O110        O  0.24828691  0.88896124  0.70353259    -0.46600
C111        C  0.40483358  0.97691867  0.70891407     0.75000
O112        O  0.29420960  0.93323454  0.61289441    -0.58400
O113        O  0.39348205  0.01089020  0.72190905    -0.48500
O114        O  0.35351095  0.01134930  0.62196891    -0.54900
C115        C  0.28273491  0.03689735  0.68507902     0.85200
O116        O  0.28280672  0.94119261  0.76249855    -0.56800
O117        O  0.36844998  0.93818380  0.68777119    -0.60100
In118      In  0.70270124  0.02304402  0.67564649     1.36900
C119        C  0.69968837  0.02444412  0.57820421     0.77600
O120        O  0.74420727  0.97901778  0.66103604    -0.60800
O121        O  0.66826730  0.93878938  0.68797088    -0.51700
C122        C  0.77055917  0.09150661  0.74080210     0.70300
O123        O  0.76454128  0.10395669  0.69851026    -0.46600
C124        C  0.61412050  0.01488625  0.70301852     0.75000
O125        O  0.74145905  0.04239035  0.60220799    -0.58400
O126        O  0.62603053  0.98028479  0.71036473    -0.48500
O127        O  0.66099525  0.01239528  0.60422085    -0.54900
C128        C  0.70545161  0.93589890  0.67001645     0.85200
O129        O  0.74262772  0.04406420  0.74881275    -0.56800
O130        O  0.64911611  0.05521980  0.68365381    -0.60100
In131      In  0.33377729  0.01092720  0.28896326     1.36900
C132        C  0.34101927  0.00907822  0.38508429     0.77600
O133        O  0.25022232  0.97391488  0.30741084    -0.60800
O134        O  0.27755424  0.92872929  0.27210309    -0.51700
C135        C  0.33170685  0.08085658  0.23062638     0.70300
O136        O  0.34859709  0.09131020  0.27384752    -0.46600
C137        C  0.41602678  0.00538565  0.26205811     0.75000
O138        O  0.33458179  0.04285980  0.36361939    -0.58400
O139        O  0.37118510  0.97516825  0.24591953    -0.48500
O140        O  0.34692707  0.97894463  0.35689940    -0.54900
C141        C  0.24108509  0.92954693  0.29410538     0.85200
O142        O  0.31607258  0.03477656  0.21752711    -0.56800
O143        O  0.41940807  0.04134306  0.28932122    -0.60100
In144      In  0.67598912  0.97008547  0.27635769     1.36900
C145        C  0.66801764  0.97529217  0.37192562     0.77600
O146        O  0.75629691  0.99636279  0.30252919    -0.60800
O147        O  0.74236476  0.04779345  0.26014899    -0.51700
C148        C  0.67140504  0.90005161  0.21137203     0.70300
O149        O  0.65679334  0.88877794  0.25480099    -0.46600
C150        C  0.59590782  0.98128081  0.25250572     0.75000
O151        O  0.67040068  0.93813780  0.35160319    -0.58400
O152        O  0.64139378  0.01339118  0.24047340    -0.48500
O153        O  0.66604476  0.00682297  0.34312117    -0.54900
C154        C  0.77380369  0.04110656  0.28594818     0.85200
O155        O  0.68849109  0.94697682  0.20205167    -0.56800
O156        O  0.59159412  0.94177549  0.27345703    -0.60100
C157        C  0.50958418  0.04227621  0.24855997    -0.05700
C158        C  0.46080118  0.99815038  0.25199946     0.00200
C159        C  0.45650933  0.94854794  0.24995518    -0.08400
C160        C  0.50180793  0.94528085  0.24686344    -0.05800
C161        C  0.55088262  0.98934978  0.24583856     0.00200
C162        C  0.55495620  0.03893256  0.24466644    -0.08300
C163        C  0.60653347  0.08820630  0.24041193     0.62100
H164        H  0.51186499  0.07970370  0.24973175     0.12800
H165        H  0.49931186  0.90776703  0.24685792     0.12800
C166        C  0.40492641  0.89911190  0.25394891     0.62300
F167        F  0.60100266  0.13168744  0.23955944    -0.22800
F168        F  0.62978165  0.08664274  0.19762274    -0.20200
F169        F  0.63829888  0.09342525  0.27956182    -0.19800
F170        F  0.37343222  0.89424526  0.21471713    -0.19900
F171        F  0.38129790  0.90008142  0.29668866    -0.20200
F172        F  0.41047674  0.85563587  0.25424226    -0.22900
C173        C  0.71572894  0.98681318  0.44864331    -0.05700
C174        C  0.67300463  0.98493907  0.42503724     0.00200
C175        C  0.63984098  0.99730483  0.45129891    -0.08400
C176        C  0.65114540  0.01173108  0.50075559    -0.05800
C177        C  0.69451647  0.01453033  0.52457818     0.00200
C178        C  0.72732186  0.00140027  0.49801370    -0.08300
C179        C  0.77343154  0.00096064  0.52146503     0.62100
H180        H  0.74077487  0.97770348  0.42750770     0.12800
H181        H  0.62583199  0.02086523  0.52137360     0.12800
C182        C  0.59176107  0.99348689  0.42766210     0.62300
F183        F  0.79829934  0.98489732  0.48923593    -0.22800
F184        F  0.75727459  0.96738469  0.55997538    -0.20200
F185        F  0.80884801  0.05009139  0.53778779    -0.19800
F186        F  0.56274375  0.94540372  0.40572749    -0.19900
F187        F  0.60545885  0.03117766  0.39303516    -0.20200
F188        F  0.56099716  0.99990081  0.46127938    -0.22900
C189        C  0.34642658  0.03174635  0.52237132    -0.05700
C190        C  0.33133463  0.98195920  0.53942516     0.00200
C191        C  0.32115796  0.94180383  0.50560998    -0.08400
C192        C  0.32559898  0.95296780  0.45574368    -0.05800
C193        C  0.33923966  0.00241694  0.43859559     0.00200
C194        C  0.35007402  0.04272660  0.47248445    -0.08300
C195        C  0.36553638  0.09706372  0.45648206     0.62100
H196        H  0.35404540  0.06206317  0.54866837     0.12800
H197        H  0.31722845  0.92241942  0.42949601     0.12800
C198        C  0.30665335  0.88773505  0.52173904     0.62300
F199        F  0.38029929  0.13140921  0.49544624    -0.22800
F200        F  0.32421869  0.09704066  0.43312821    -0.20200
F201        F  0.40682627  0.11472581  0.42531222    -0.19800
F202        F  0.25856292  0.86474594  0.54280432    -0.19900
F203        F  0.34294444  0.89012995  0.55495905    -0.20200
F204        F  0.30455665  0.85656927  0.48312392    -0.22900
C205        C  0.49840052  0.03379442  0.72555636    -0.05700
C206        C  0.45754248  0.98378887  0.71489522     0.00200
C207        C  0.46874653  0.94315322  0.70676829    -0.08400
C208        C  0.52063003  0.95521076  0.70580224    -0.05800
C209        C  0.56142073  0.00593282  0.71220521     0.00200
C210        C  0.55037197  0.04574133  0.72423688    -0.08300
C211        C  0.59289788  0.10045160  0.73571446     0.62100
H212        H  0.48952311  0.06434481  0.73269762     0.12800
H213        H  0.52978127  0.92508603  0.69730087     0.12800
C214        C  0.42685760  0.88734513  0.69815520     0.62300
F215        F  0.57340894  0.13062394  0.75423279    -0.22800
F216        F  0.61940943  0.12338157  0.69394020    -0.20200
F217        F  0.62672446  0.09966667  0.77003530    -0.19800
F218        F  0.40360745  0.88206239  0.65310901    -0.19900
F219        F  0.39031308  0.87247600  0.73416557    -0.20200
F220        F  0.44651749  0.85385774  0.69900493    -0.22900
C221        C  0.66910669  0.83025603  0.09239833    -0.05700
C222        C  0.66896702  0.78616048  0.10995424     0.00200
C223        C  0.66763082  0.77863821  0.16094845    -0.08400
C224        C  0.66810876  0.81659754  0.19241423    -0.05800
C225        C  0.66963008  0.86152439  0.17491238     0.00200
C226        C  0.66918779  0.86803471  0.12371794    -0.08300
C227        C  0.66754665  0.91372114  0.10149408     0.62100
H228        H  0.66973336  0.83520627  0.05345665     0.12800
H229        H  0.66792862  0.81164556  0.23132475     0.12800
C230        C  0.66403987  0.73015166  0.18236280     0.62300
F231        F  0.66049425  0.90841773  0.05150308    -0.22800
F232        F  0.71351338  0.95859785  0.11111629    -0.20200
F233        F  0.62693325  0.91791880  0.12052600    -0.19800
F234        F  0.70919467  0.72906152  0.17408581    -0.19900
F235        F  0.62281272  0.68691181  0.16126810    -0.20200
F236        F  0.65654608  0.72784746  0.23206854    -0.22900
C237        C  0.49501047  0.53208087  0.04366160    -0.05700
C238        C  0.54489835  0.53825676  0.04557147     0.00200
C239        C  0.55064085  0.49419934  0.05383602    -0.08400
C240        C  0.50596717  0.44556069  0.05769669    -0.05800
C241        C  0.45634458  0.43945483  0.05418217     0.00200
C242        C  0.45046849  0.48349957  0.04774165    -0.08300
C243        C  0.39761532  0.47929432  0.04258341     0.62100
H244        H  0.49104893  0.56584398  0.03778213     0.12800
H245        H  0.50933726  0.41129827  0.06250533     0.12800
C246        C  0.60311232  0.49741998  0.05703970     0.62300
F247        F  0.40112866  0.52654126  0.03354080    -0.22800
F248        F  0.37047697  0.46083112  0.08505337    -0.20200
F249        F  0.37037613  0.44625610  0.00428174    -0.19800
F250        F  0.63132703  0.52923107  0.09567368    -0.19900
F251        F  0.62941381  0.51653497  0.01424418    -0.20200
F252        F  0.59895729  0.44960489  0.06441986    -0.22900
C253        C  0.31612279  0.18930942  0.17486936    -0.05700
C254        C  0.33299968  0.18968741  0.12701396     0.00200
C255        C  0.34952121  0.15380784  0.11404797    -0.08400
C256        C  0.34818752  0.11919242  0.14927867    -0.05800
C257        C  0.33179361  0.11935568  0.19681415     0.00200
C258        C  0.31489066  0.15454783  0.20998989    -0.08300
C259        C  0.29309395  0.15357118  0.25997167     0.62100
H260        H  0.30316549  0.21627969  0.18464763     0.12800
H261        H  0.36054604  0.09158822  0.14006703     0.12800
C262        C  0.36906336  0.15177355  0.06372496     0.62300
F263        F  0.27496499  0.18818107  0.26396471    -0.22800
F264        F  0.33085499  0.16643185  0.29540297    -0.20200
F265        F  0.25239255  0.10467392  0.26852208    -0.19800
F266        F  0.41061872  0.19939009  0.05295809    -0.19900
F267        F  0.32995918  0.13832299  0.02957861    -0.20200
F268        F  0.38541780  0.11570096  0.06038135    -0.22900
C269        C  0.65824083  0.79747940  0.62760300    -0.05700
C270        C  0.70506864  0.79724353  0.62351872     0.00200
C271        C  0.75202587  0.84267485  0.63575896    -0.08400
C272        C  0.75005919  0.88665438  0.65168188    -0.05800
C273        C  0.70312730  0.88640839  0.65698772     0.00200
C274        C  0.65608996  0.84089647  0.64480816    -0.08300
C275        C  0.60362913  0.83751976  0.64962035     0.62100
H276        H  0.62268420  0.76234857  0.61879598     0.12800
H277        H  0.78553122  0.92176339  0.66080415     0.12800
C278        C  0.80412286  0.84532878  0.63208007     0.62300
F279        F  0.56361445  0.79021662  0.63376013    -0.22800
F280        F  0.60176544  0.87520495  0.62209555    -0.20200
F281        F  0.59510076  0.84386648  0.69790787    -0.19800
F282        F  0.80883508  0.82782965  0.58668674    -0.19900
F283        F  0.80882135  0.81538825  0.66767977    -0.20200
F284        F  0.84462164  0.89523769  0.63841596    -0.22900
C285        C  0.63605309  0.66388225  0.77542422    -0.05700
C286        C  0.67793670  0.65837324  0.75907615     0.00200
C287        C  0.71451581  0.66036621  0.79375946    -0.08400
C288        C  0.70648232  0.66580251  0.84333023    -0.05800
C289        C  0.66445403  0.67071769  0.85918768     0.00200
C290        C  0.62884684  0.67032282  0.82497015    -0.08300
C291        C  0.58268055  0.67488450  0.84101903     0.62100
H292        H  0.60866455  0.66325784  0.74892939     0.12800
H293        H  0.73346468  0.66670695  0.87052099     0.12800
C294        C  0.76167700  0.65672074  0.77922438     0.62300
F295        F  0.55167618  0.67214687  0.80203106    -0.22800
F296        F  0.59934683  0.72167013  0.86482191    -0.20200
F297        F  0.55312177  0.63521826  0.87219977    -0.19800
F298        F  0.79369547  0.69884869  0.75157625    -0.19900
F299        F  0.74662699  0.61168539  0.75275859    -0.20200
F300        F  0.78998021  0.65632724  0.81927405    -0.22900
C301        C  0.26152781  0.15211831  0.69308455    -0.05700
C302        C  0.27026275  0.16824800  0.64449175     0.00200
C303        C  0.27644979  0.13724156  0.60890737    -0.08400
C304        C  0.27603615  0.09210037  0.62375151    -0.05800
C305        C  0.27281075  0.07913439  0.67296850     0.00200
C306        C  0.26473103  0.10885226  0.70834370    -0.08300
C307        C  0.26105496  0.09570684  0.76180405     0.62100
H308        H  0.25609378  0.17592582  0.71974131     0.12800
H309        H  0.28202501  0.06845889  0.59730492     0.12800
C310        C  0.28454260  0.15205433  0.55580351     0.62300
F311        F  0.24611211  0.12506768  0.78935506    -0.22800
F312        F  0.30867264  0.10498259  0.77901917    -0.20200
F313        F  0.22519709  0.04420140  0.76799262    -0.19800
F314        F  0.33339342  0.19380408  0.54996204    -0.19900
F315        F  0.24804639  0.16479339  0.54023037    -0.20200
F316        F  0.27997399  0.11192449  0.52651982    -0.22900
C317        C  0.29486253  0.33689188  0.81108291    -0.05700
C318        C  0.32316936  0.32258561  0.78033657     0.00200
C319        C  0.35329749  0.30229716  0.80133919    -0.08400
C320        C  0.35411577  0.29779080  0.85226371    -0.05800
C321        C  0.32624972  0.31261355  0.88275900     0.00200
C322        C  0.29559283  0.33211483  0.86193539    -0.08300
C323        C  0.26133396  0.34507914  0.89280656     0.62100
H324        H  0.27164153  0.35165605  0.79480937     0.12800
H325        H  0.37698872  0.28283198  0.86893633     0.12800
C326        C  0.38351496  0.28389260  0.77073826     0.62300
F327        F  0.22950067  0.35635753  0.86474689    -0.22800
F328        F  0.29121654  0.38761603  0.92233465    -0.20200
F329        F  0.23019409  0.30321689  0.92106885    -0.19800
F330        F  0.42241006  0.32507300  0.74668870    -0.19900
F331        F  0.35090260  0.24695515  0.73737016    -0.20200
F332        F  0.40621231  0.26188360  0.79868406    -0.22900
C333        C  0.48215632  0.43250729  0.58318655    -0.05700
C334        C  0.44078401  0.44213160  0.58856424     0.00200
C335        C  0.44997471  0.49340850  0.58401411    -0.08400
C336        C  0.50126856  0.53378934  0.58056906    -0.05800
C337        C  0.54304196  0.52438731  0.58054609     0.00200
C338        C  0.53323713  0.47282429  0.57851155    -0.08300
C339        C  0.57622043  0.46011667  0.57150145     0.62100
H340        H  0.47466622  0.39308530  0.58496266     0.12800
H341        H  0.50919235  0.57340835  0.58043513     0.12800
C342        C  0.40629231  0.50582280  0.58245663     0.62300
F343        F  0.55693745  0.40916550  0.55701973    -0.22800
F344        F  0.60351375  0.46819468  0.61462757    -0.20200
F345        F  0.60928398  0.49088162  0.53584463    -0.19800
F346        F  0.38523326  0.50030979  0.62804791    -0.19900
F347        F  0.36850438  0.47303321  0.54964047    -0.20200
F348        F  0.42325903  0.55596495  0.56787534    -0.22900
C349        C  0.14487805  0.79288898  0.33083764    -0.05700
C350        C  0.10030577  0.79677240  0.33750215     0.00200
C351        C  0.10266470  0.84505456  0.33180868    -0.08400
C352        C  0.14908174  0.88707835  0.31614185    -0.05800
C353        C  0.19292523  0.88241804  0.30691960     0.00200
C354        C  0.19143209  0.83482314  0.31592364    -0.08300
C355        C  0.23863935  0.82802381  0.31141354     0.62100
H356        H  0.14255191  0.75580630  0.33597393     0.12800
H357        H  0.15137282  0.92412481  0.31079218     0.12800
C358        C  0.05730761  0.85285366  0.34364401     0.62300
F359        F  0.22895146  0.77986106  0.32641930    -0.22800
F360        F  0.27859655  0.86450873  0.34016992    -0.20200
F361        F  0.25376723  0.83319492  0.26347913    -0.19800
F362        F  0.03767065  0.83188930  0.38839652    -0.19900
F363        F  0.01918001  0.82936258  0.30825583    -0.20200
F364        F  0.07167677  0.90469412  0.34588361    -0.22900
C365        C  0.81215645  0.63550641  0.42702620    -0.05700
C366        C  0.86167847  0.64769443  0.44355723     0.00200
C367        C  0.87225646  0.65311668  0.49454458    -0.08400
C368        C  0.83418356  0.65039965  0.52646566    -0.05800
C369        C  0.78587715  0.64155201  0.50952269     0.00200
C370        C  0.77370657  0.63145923  0.45912828    -0.08300
C371        C  0.71974271  0.61411254  0.43931852     0.62100
H372        H  0.80381341  0.62961381  0.38837846     0.12800
H373        H  0.84246080  0.65658634  0.56510622     0.12800
C374        C  0.92296059  0.66080896  0.51575057     0.62300
F375        F  0.71417846  0.59790212  0.39120935    -0.22800
F376        F  0.70919974  0.65430709  0.44190340    -0.20200
F377        F  0.68395771  0.57310131  0.46603704    -0.19800
F378        F  0.96274287  0.70918511  0.50414290    -0.19900
F379        F  0.93304098  0.62326428  0.49752197    -0.20200
F380        F  0.92172912  0.65721467  0.56589452    -0.22900
C381        C  0.90374596  0.16334648  0.28567453    -0.05700
C382        C  0.91336267  0.17232020  0.33588411     0.00200
C383        C  0.88062683  0.13484758  0.36906131    -0.08400
C384        C  0.83712206  0.09027392  0.35062840    -0.05800
C385        C  0.82496299  0.08364428  0.30062307     0.00200
C386        C  0.85928548  0.11982783  0.26734019    -0.08300
C387        C  0.84872878  0.11286006  0.21295405     0.62100
H388        H  0.92961950  0.19259141  0.26091077     0.12800
H389        H  0.81034130  0.06190499  0.37552175     0.12800
C390        C  0.89105316  0.14242008  0.42342462     0.62300
F391        F  0.80721068  0.11957981  0.20140136    -0.22800
F392        F  0.83780426  0.06381840  0.19858178    -0.20200
F393        F  0.89076129  0.14818141  0.18694795    -0.19800
F394        F  0.88150467  0.18069022  0.44035274    -0.19900
F395        F  0.94196658  0.15650854  0.43342677    -0.20200
F396        F  0.85997075  0.09767998  0.44835443    -0.22900
C397        C  0.95375874  0.43889265  0.39814542    -0.05700
C398        C  0.00466651  0.44794055  0.39488174     0.00200
C399        C  0.04615015  0.49959564  0.39606873    -0.08400
C400        C  0.03475915  0.53989797  0.39336164    -0.05800
C401        C  0.98380599  0.53041397  0.39048928     0.00200
C402        C  0.94252985  0.47953870  0.39649200    -0.08300
C403        C  0.88720455  0.46817380  0.40172099     0.62100
H404        H  0.92234514  0.39943316  0.39932352     0.12800
H405        H  0.06604395  0.57927520  0.39049513     0.12800
C406        C  0.10230040  0.51284558  0.39948430     0.62300
F407        F  0.85521303  0.41821947  0.41693576    -0.22800
F408        F  0.86823208  0.47408843  0.35767781    -0.20200
F409        F  0.88527141  0.50151667  0.43594327    -0.19800
F410        F  0.11787668  0.50310710  0.35533730    -0.19900
F411        F  0.10838108  0.48388958  0.43527027    -0.20200
F412        F  0.13447224  0.56443420  0.41141666    -0.22900
C413        C  0.12049393  0.32816030  0.50764489    -0.05700
C414        C  0.13193625  0.32808922  0.45812388     0.00200
C415        C  0.17788363  0.32773275  0.44548445    -0.08400
C416        C  0.20987108  0.32654415  0.48302059    -0.05800
C417        C  0.19811055  0.32606726  0.53254299     0.00200
C418        C  0.15265659  0.32734717  0.54514181    -0.08300
C419        C  0.13701861  0.32652041  0.59765359     0.62100
H420        H  0.08564439  0.32889013  0.51695625     0.12800
H421        H  0.24488062  0.32607928  0.47379977     0.12800
C422        C  0.19297353  0.32746885  0.39288546     0.62300
F423        F  0.08935680  0.32369045  0.60125769    -0.22800
F424        F  0.17294504  0.37114917  0.62157265    -0.20200
F425        F  0.13395793  0.28398419  0.62052641    -0.19800
F426        F  0.20239685  0.37285958  0.37103743    -0.19900
F427        F  0.15367551  0.28581261  0.36799390    -0.20200
F428        F  0.23721503  0.32353794  0.38909861    -0.22900
C429        C  0.03273648  0.34589453  0.12616547    -0.05700
C430        C  0.98128960  0.31653164  0.10928780     0.00200
C431        C  0.94126336  0.29374490  0.14347852    -0.08400
C432        C  0.95446106  0.30004594  0.19332660    -0.05800
C433        C  0.00599771  0.32862585  0.21023808     0.00200
C434        C  0.04594835  0.35282257  0.17602597    -0.08300
C435        C  0.10196164  0.38731138  0.19159761     0.62100
H436        H  0.06303490  0.36316016  0.09966952     0.12800
H437        H  0.92416234  0.28162019  0.21969024     0.12800
C438        C  0.88487280  0.26383808  0.12783429     0.62300
F439        F  0.13327458  0.41131152  0.15241451    -0.22800
F440        F  0.12061689  0.35848944  0.21425504    -0.20200
F441        F  0.10563815  0.42541951  0.22321687    -0.19800
F442        F  0.87463727  0.21810075  0.10509952    -0.19900
F443        F  0.87381412  0.29299793  0.09618010    -0.20200
F444        F  0.85226633  0.25192286  0.16701559    -0.22900
C445        C  0.09352688  0.23875078  0.00434445    -0.05700
C446        C  0.09840680  0.28589669  0.98899907     0.00200
C447        C  0.14665142  0.33202258  0.99545781    -0.08400
C448        C  0.18906229  0.32819879  0.01238325    -0.05800
C449        C  0.18481993  0.28082045  0.02468692     0.00200
C450        C  0.13607435  0.23555087  0.02282410    -0.08300
C451        C  0.12879539  0.18495919  0.04225286     0.62100
H452        H  0.05604852  0.20419707  0.00164593     0.12800
H453        H  0.22678327  0.36250808  0.01472057     0.12800
C454        C  0.15374441  0.38551584  0.98674951     0.62300
F455        F  0.07706955  0.14885651  0.04679925    -0.22800
F456        F  0.15194253  0.19319829  0.08778202    -0.20200
F457        F  0.15077317  0.16476333  0.01122484    -0.19800
F458        F  0.11815789  0.39205320  0.01335271    -0.19900
F459        F  0.14757039  0.39170326  0.93786030    -0.20200
F460        F  0.20239085  0.42432239  0.00107796    -0.22900
C461        C  0.79476914  0.11372838  0.82797268    -0.05700
C462        C  0.80575802  0.12855609  0.77911460     0.00200
C463        C  0.84971990  0.17690904  0.76892358    -0.08400
C464        C  0.88019979  0.20858134  0.80805389    -0.05800
C465        C  0.86886683  0.19390034  0.85678673     0.00200
C466        C  0.82552247  0.14532852  0.86703741    -0.08300
C467        C  0.81259545  0.12593044  0.91867575     0.62100
H468        H  0.76129937  0.07680092  0.83552742     0.12800
H469        H  0.91353735  0.24571158  0.80077791     0.12800
C470        C  0.86583686  0.19473752  0.71726819     0.62300
F471        F  0.77255894  0.07542174  0.91991203    -0.22800
F472        F  0.79782523  0.15625395  0.94476342    -0.20200
F473        F  0.85530088  0.12774288  0.94092349    -0.19800
F474        F  0.82887139  0.20268190  0.69446870    -0.19900
F475        F  0.87179948  0.15785420  0.69172257    -0.20200
F476        F  0.91228762  0.24062496  0.71603240    -0.22900
C477        C  0.85858406  0.66139851  0.94887559    -0.05700
C478        C  0.90364085  0.70958894  0.94725734     0.00200
C479        C  0.90168793  0.75479148  0.95975122    -0.08400
C480        C  0.85473437  0.74955686  0.97624607    -0.05800
C481        C  0.81072716  0.70079566  0.98133868     0.00200
C482        C  0.81213056  0.65588706  0.96604232    -0.08300
C483        C  0.76521256  0.60202249  0.96755262     0.62100
H484        H  0.86070183  0.62719071  0.93923733     0.12800
H485        H  0.85249821  0.78353518  0.98665137     0.12800
C486        C  0.94863328  0.80811041  0.95629200     0.62300
F487        F  0.77413814  0.56541063  0.94514677    -0.22800
F488        F  0.72383127  0.60114593  0.94365354    -0.20200
F489        F  0.75257853  0.58769183  0.01531067    -0.19800
F490        F  0.97420959  0.81226770  0.91338649    -0.19900
F491        F  0.98165199  0.81670387  0.99528448    -0.20200
F492        F  0.93493373  0.84625793  0.95687907    -0.22900
C493        C  0.04465432  0.67887737  0.12591791    -0.05700
C494        C  0.00383108  0.66925564  0.09417188     0.00200
C495        C  0.95434861  0.65427422  0.11349824    -0.08400
C496        C  0.94735950  0.64765866  0.16405741    -0.05800
C497        C  0.98787173  0.65591681  0.19584364     0.00200
C498        C  0.03786688  0.67274757  0.17650985    -0.08300
C499        C  0.08463588  0.68605679  0.20872329     0.62100
H500        H  0.08212693  0.69076602  0.11048756     0.12800
H501        H  0.90986442  0.63598309  0.17930968     0.12800
C502        C  0.90960511  0.64781112  0.08151522     0.62300
F503        F  0.13005184  0.70835845  0.18282848    -0.22800
F504        F  0.07940389  0.64178871  0.22973050    -0.20200
F505        F  0.08931143  0.72096545  0.24456643    -0.19800
F506        F  0.92481161  0.69194562  0.05480572    -0.19900
F507        F  0.86740878  0.63983109  0.10861349    -0.20200
F508        F  0.89386027  0.60583462  0.05040114    -0.22900
C509        C  0.03587023  0.47894242  0.91074499    -0.05700
C510        C  0.98493520  0.43949594  0.91879056     0.00200
C511        C  0.94473051  0.45200304  0.91969261    -0.08400
C512        C  0.95785694  0.50413043  0.91674504    -0.05800
C513        C  0.00936914  0.54386137  0.91419300     0.00200
C514        C  0.04899907  0.53117426  0.90887067    -0.08300
C515        C  0.10493605  0.57224875  0.90211827     0.62100
H516        H  0.06623032  0.46902276  0.90905988     0.12800
H517        H  0.92790327  0.51450612  0.91991455     0.12800
C518        C  0.88839551  0.41140618  0.92536689     0.62300
F519        F  0.13492566  0.55090045  0.88796264    -0.22800
F520        F  0.12518687  0.59904275  0.94537370    -0.20200
F521        F  0.10819327  0.60620160  0.86654697    -0.19800
F522        F  0.88021516  0.39308119  0.97228331    -0.19900
F523        F  0.87520906  0.37105998  0.89269611    -0.20200
F524        F  0.85577145  0.43124727  0.91662072    -0.22900
C525        C  0.13889328  0.77485996  0.80570350    -0.05700
C526        C  0.14284474  0.79077498  0.85454574     0.00200
C527        C  0.18237405  0.84083122  0.86858000    -0.08400
C528        C  0.21636326  0.87314049  0.83293050    -0.05800
C529        C  0.21188919  0.85777979  0.78367252     0.00200
C530        C  0.17239937  0.80726622  0.76981218    -0.08300
C531        C  0.16452253  0.78720564  0.71762291     0.62100
H532        H  0.10851380  0.73643185  0.79568822     0.12800
H533        H  0.24650981  0.91146366  0.84346059     0.12800
C534        C  0.18753010  0.86113941  0.92036816     0.62300
F535        F  0.12423686  0.73694197  0.71300233    -0.22800
F536        F  0.20874412  0.78789916  0.70164109    -0.20200
F537        F  0.15297808  0.81755275  0.68808076    -0.19800
F538        F  0.20077500  0.83306200  0.95124350    -0.19900
F539        F  0.14123898  0.85700283  0.93463554    -0.20200
F540        F  0.22521752  0.91254195  0.92491944    -0.22900
loop_ 
_geom_bond_atom_site_label_1 
_geom_bond_atom_site_label_2 
_geom_bond_distance 
_geom_bond_site_symmetry_2 
_ccdc_geom_bond_type 
In1           O3   2.241   1_455  S
In1           O4   2.211   1_455  S
In1          O12   2.236       .  S
In1           O6   2.267       .  S
In1           O8   2.274   1_556  S
In1           O9   2.229   1_455  S
In1          O10   2.232   1_456  S
In1          O13   2.247       .  S
C2            O8   1.268       .  A
C2           O10   1.256   1_455  A
C2          C494   1.486       .  S
O3           C11   1.261       .  A
O4           C11   1.262       .  A
C5           O12   1.259       .  A
C5            O6   1.264       .  A
C5          C526   1.490       .  S
C7            O9   1.260   1_455  A
C7           O13   1.262       .  A
C7          C513   1.480       .  S
C11         C478   1.476       .  S
In14         O16   2.243   1_655  S
In14         O17   2.218   1_655  S
In14         O25   2.242       .  S
In14         O19   2.268       .  S
In14         O21   2.269   1_556  S
In14         O22   2.236   1_655  S
In14         O23   2.221   1_656  S
In14         O26   2.243       .  S
C15          O21   1.268       .  A
C15          O23   1.258   1_655  A
C15         C430   1.488       .  S
O16          C24   1.262       .  A
O17          C24   1.260       .  A
C18          O25   1.260       .  A
C18          O19   1.264       .  A
C18         C465   1.493       .  S
C20          O22   1.262   1_655  A
C20          O26   1.262       .  A
C20         C510   1.487       .  S
C24         C446   1.482       .  S
In27         O29   2.221   1_455  S
In27         O30   2.236   1_455  S
In27         O38   2.237       .  S
In27         O32   2.259       .  S
In27         O34   2.260       .  S
In27         O35   2.249   1_455  S
In27         O36   2.222   1_455  S
In27         O39   2.221       .  S
C28          O34   1.268       .  A
C28          O36   1.261   1_455  A
C28         C433   1.490       .  S
O29          C37   1.261       .  A
O30          C37   1.265       .  A
C31          O38   1.262       .  A
C31          O32   1.264       .  A
C31         C414   1.496       .  S
C33          O35   1.264   1_455  A
C33          O39   1.260       .  A
C33         C398   1.485       .  S
C37         C382   1.469       .  S
In40         O42   2.236   1_655  S
In40         O43   2.217   1_655  S
In40         O51   2.229       .  S
In40         O45   2.273       .  S
In40         O47   2.271       .  S
In40         O48   2.225   1_655  S
In40         O49   2.236   1_655  S
In40         O52   2.236       .  S
C41          O47   1.267       .  A
C41          O49   1.257   1_655  A
C41         C497   1.492       .  S
O42          C50   1.262       .  A
O43          C50   1.262       .  A
C44          O51   1.257       .  A
C44          O45   1.266       .  A
C44         C366   1.495       .  S
C46          O48   1.262   1_655  A
C46          O52   1.262       .  A
C46         C401   1.478       .  S
C50         C350   1.477       .  S
In53         O55   2.238       .  S
In53         O56   2.237       .  S
In53         O64   2.244       .  S
In53         O58   2.271       .  S
In53         O60   2.269       .  S
In53         O61   2.243       .  S
In53         O62   2.228       .  S
In53         O65   2.237       .  S
C54          O60   1.269       .  A
C54          O62   1.258       .  A
C54         C318   1.494       .  S
O55          C63   1.261       .  A
O56          C63   1.263       .  A
C57          O64   1.261       .  A
C57          O58   1.264       .  A
C57         C417   1.497       .  S
C59          O61   1.263       .  A
C59          O65   1.262       .  A
C59         C334   1.486       .  S
C63         C302   1.476       .  S
In66         O68   2.226       .  S
In66         O69   2.236       .  S
In66         O77   2.243       .  S
In66         O71   2.276       .  S
In66         O73   2.269       .  S
In66         O74   2.239       .  S
In66         O75   2.225       .  S
In66         O78   2.230       .  S
C67          O73   1.266       .  A
C67          O75   1.258       .  A
C67         C286   1.494       .  S
O68          C76   1.259       .  A
O69          C76   1.263       .  A
C70          O77   1.259       .  A
C70          O71   1.265       .  A
C70         C369   1.493       .  S
C72          O74   1.263       .  A
C72          O78   1.263       .  A
C72         C337   1.482       .  S
C76         C270   1.484       .  S
In79         O81   2.240       .  S
In79         O82   2.220       .  S
In79         O90   2.251       .  S
In79         O84   2.257       .  S
In79         O86   2.277   1_554  S
In79         O87   2.227       .  S
In79         O88   2.220   1_554  S
In79         O91   2.244       .  S
C80          O86   1.268       .  A
C80          O88   1.255       .  A
C80         C321   1.486       .  S
O81          C89   1.261       .  A
O82          C89   1.261       .  A
C83          O90   1.261       .  A
C83          O84   1.262       .  A
C83         C254   1.500       .  S
C85          O87   1.259       .  A
C85          O91   1.264       .  A
C85         C241   1.480       .  S
C89         C449   1.472       .  S
In92         O94   2.242   1_554  S
In92         O95   2.220       .  S
In92        O103   2.247       .  S
In92         O97   2.259       .  S
In92         O99   2.273   1_554  S
In92        O100   2.238       .  S
In92        O101   2.218   1_554  S
In92        O104   2.246       .  S
C93          O99   1.266       .  A
C93         O101   1.256       .  A
C93         C289   1.475       .  S
O94         C102   1.261       .  A
O95         C102   1.261   1_554  A
C96         O103   1.259       .  A
C96          O97   1.264       .  A
C96         C222   1.492       .  S
C98         O100   1.259       .  A
C98         O104   1.265       .  A
C98         C238   1.491       .  S
C102        C481   1.475       .  S
In105       O107   2.222       .  S
In105       O108   2.238   1_565  S
In105       O116   2.242       .  S
In105       O110   2.252       .  S
In105       O112   2.250       .  S
In105       O113   2.249   1_565  S
In105       O114   2.222   1_565  S
In105       O117   2.214       .  S
C106        O112   1.267       .  A
C106        O114   1.261   1_565  A
C106        C190   1.484       .  S
O107        C115   1.260   1_565  A
O108        C115   1.265       .  A
C109        O116   1.262       .  A
C109        O110   1.263       .  A
C109        C529   1.499       .  S
C111        O113   1.265   1_565  A
C111        O117   1.259       .  A
C111        C206   1.488       .  S
C115        C305   1.469       .  S
In118       O120   2.239   1_545  S
In118       O121   2.225   1_545  S
In118       O129   2.249       .  S
In118       O123   2.273       .  S
In118       O125   2.271       .  S
In118       O126   2.223   1_545  S
In118       O127   2.250       .  S
In118       O130   2.243       .  S
C119        O125   1.262       .  A
C119        O127   1.258       .  A
C119        C177   1.493       .  S
O120        C128   1.261       .  A
O121        C128   1.258       .  A
C122        O129   1.260       .  A
C122        O123   1.263       .  A
C122        C462   1.498       .  S
C124        O126   1.263   1_545  A
C124        O130   1.265       .  A
C124        C209   1.482       .  S
C128        C273   1.482       .  S
In131       O133   2.235   1_545  S
In131       O134   2.221   1_545  S
In131       O142   2.242       .  S
In131       O136   2.255       .  S
In131       O138   2.250       .  S
In131       O139   2.225   1_545  S
In131       O140   2.224   1_545  S
In131       O143   2.247       .  S
C132        O138   1.265       .  A
C132        O140   1.258   1_545  A
C132        C193   1.485       .  S
O133        C141   1.261       .  A
O134        C141   1.259       .  A
C135        O142   1.260       .  A
C135        O136   1.262       .  A
C135        C257   1.483       .  S
C137        O139   1.260   1_545  A
C137        O143   1.264       .  A
C137        C158   1.481   1_545  S
C141        C353   1.478       .  S
In144       O146   2.228       .  S
In144       O147   2.232   1_565  S
In144       O155   2.243       .  S
In144       O149   2.268       .  S
In144       O151   2.260       .  S
In144       O152   2.241   1_565  S
In144       O153   2.225   1_565  S
In144       O156   2.223       .  S
C145        O151   1.269       .  A
C145        O153   1.258   1_565  A
C145        C174   1.478       .  S
O146        C154   1.260   1_565  A
O147        C154   1.264       .  A
C148        O155   1.259       .  A
C148        O149   1.266       .  A
C148        C225   1.498       .  S
C150        O152   1.263   1_565  A
C150        O156   1.265       .  A
C150        C161   1.485       .  S
C154        C385   1.471       .  S
C157        C158   1.403   1_545  A
C157        C162   1.409       .  A
C157        H164   1.083       .  S
C158        C159   1.420       .  A
C159        C160   1.404       .  A
C159        C166   1.521       .  S
C160        C161   1.403       .  A
C160        H165   1.083       .  S
C161        C162   1.422   1_565  A
C162        C163   1.519       .  S
C163        F167   1.385       .  S
C163        F168   1.383       .  S
C163        F169   1.383       .  S
C166        F170   1.382       .  S
C166        F171   1.383       .  S
C166        F172   1.385       .  S
C173        C174   1.400       .  A
C173        C178   1.409   1_565  A
C173        H180   1.083       .  S
C174        C175   1.415       .  A
C175        C176   1.410   1_565  A
C175        C182   1.520       .  S
C176        C177   1.409       .  A
C176        H181   1.083       .  S
C177        C178   1.424       .  A
C178        C179   1.519       .  S
C179        F183   1.385   1_545  S
C179        F184   1.382   1_545  S
C179        F185   1.382       .  S
C182        F186   1.384       .  S
C182        F187   1.382   1_565  S
C182        F188   1.385       .  S
C189        C190   1.408   1_545  A
C189        C194   1.407       .  A
C189        H196   1.083       .  S
C190        C191   1.416       .  A
C191        C192   1.407       .  A
C191        C198   1.520       .  S
C192        C193   1.409   1_565  A
C192        H197   1.083       .  S
C193        C194   1.416       .  A
C194        C195   1.519       .  S
C195        F199   1.384       .  S
C195        F200   1.383       .  S
C195        F201   1.384       .  S
C198        F202   1.383       .  S
C198        F203   1.384       .  S
C198        F204   1.385       .  S
C205        C206   1.408   1_545  A
C205        C210   1.408       .  A
C205        H212   1.083       .  S
C206        C207   1.422       .  A
C207        C208   1.404       .  A
C207        C214   1.522       .  S
C208        C209   1.403   1_565  A
C208        H213   1.083       .  S
C209        C210   1.416       .  A
C210        C211   1.518       .  S
C211        F215   1.385       .  S
C211        F216   1.382       .  S
C211        F217   1.384       .  S
C214        F218   1.383       .  S
C214        F219   1.384       .  S
C214        F220   1.385       .  S
C221        C222   1.402       .  A
C221        C226   1.410       .  A
C221        H228   1.082       .  S
C222        C223   1.421       .  A
C223        C224   1.412       .  A
C223        C230   1.520       .  S
C224        C225   1.407       .  A
C224        H229   1.082       .  S
C225        C226   1.425       .  A
C226        C227   1.520       .  S
C227        F231   1.385       .  S
C227        F232   1.383       .  S
C227        F233   1.383       .  S
C230        F234   1.383       .  S
C230        F235   1.384       .  S
C230        F236   1.385       .  S
C237        C238   1.405       .  A
C237        C242   1.406       .  A
C237        H244   1.083       .  S
C238        C239   1.425       .  A
C239        C240   1.408       .  A
C239        C246   1.520       .  S
C240        C241   1.400       .  A
C240        H245   1.083       .  S
C241        C242   1.420       .  A
C242        C243   1.522       .  S
C243        F247   1.384       .  S
C243        F248   1.383       .  S
C243        F249   1.383       .  S
C246        F250   1.383       .  S
C246        F251   1.383       .  S
C246        F252   1.385       .  S
C253        C254   1.412       .  A
C253        C258   1.411       .  A
C253        H260   1.082       .  S
C254        C255   1.424       .  A
C255        C256   1.409       .  A
C255        C262   1.519       .  S
C256        C257   1.401       .  A
C256        H261   1.083       .  S
C257        C258   1.415       .  A
C258        C259   1.520       .  S
C259        F263   1.384       .  S
C259        F264   1.382       .  S
C259        F265   1.384       .  S
C262        F266   1.383       .  S
C262        F267   1.383       .  S
C262        F268   1.385       .  S
C269        C270   1.404       .  A
C269        C274   1.404       .  A
C269        H276   1.083       .  S
C270        C271   1.420       .  A
C271        C272   1.406       .  A
C271        C278   1.519       .  S
C272        C273   1.404       .  A
C272        H277   1.083       .  S
C273        C274   1.422       .  A
C274        C275   1.523       .  S
C275        F279   1.385       .  S
C275        F280   1.384       .  S
C275        F281   1.383       .  S
C278        F282   1.384       .  S
C278        F283   1.383       .  S
C278        F284   1.384       .  S
C285        C286   1.413       .  A
C285        C290   1.408       .  A
C285        H292   1.083       .  S
C286        C287   1.421       .  A
C287        C288   1.408       .  A
C287        C294   1.519       .  S
C288        C289   1.404       .  A
C288        H293   1.084       .  S
C289        C290   1.408       .  A
C290        C291   1.517       .  S
C291        F295   1.385       .  S
C291        F296   1.383       .  S
C291        F297   1.383       .  S
C294        F298   1.383       .  S
C294        F299   1.383       .  S
C294        F300   1.385       .  S
C301        C302   1.408       .  A
C301        C306   1.407       .  A
C301        H308   1.083       .  S
C302        C303   1.414       .  A
C303        C304   1.404       .  A
C303        C310   1.517       .  S
C304        C305   1.403       .  A
C304        H309   1.084       .  S
C305        C306   1.410       .  A
C306        C307   1.517       .  S
C307        F311   1.384       .  S
C307        F312   1.383       .  S
C307        F313   1.384       .  S
C310        F314   1.383       .  S
C310        F315   1.383       .  S
C310        F316   1.384       .  S
C317        C318   1.403       .  A
C317        C322   1.409       .  A
C317        H324   1.083       .  S
C318        C319   1.428       .  A
C319        C320   1.410       .  A
C319        C326   1.521       .  S
C320        C321   1.399       .  A
C320        H325   1.083       .  S
C321        C322   1.422       .  A
C322        C323   1.520       .  S
C323        F327   1.384       .  S
C323        F328   1.383       .  S
C323        F329   1.382       .  S
C326        F330   1.383       .  S
C326        F331   1.381       .  S
C326        F332   1.385       .  S
C333        C334   1.406       .  A
C333        C338   1.406       .  A
C333        H340   1.084       .  S
C334        C335   1.420       .  A
C335        C336   1.407       .  A
C335        C342   1.519       .  S
C336        C337   1.404       .  A
C336        H341   1.084       .  S
C337        C338   1.416       .  A
C338        C339   1.518       .  S
C339        F343   1.384       .  S
C339        F344   1.382       .  S
C339        F345   1.384       .  S
C342        F346   1.382       .  S
C342        F347   1.384       .  S
C342        F348   1.385       .  S
C349        C350   1.402       .  A
C349        C354   1.401       .  A
C349        H356   1.083       .  S
C350        C351   1.416       .  A
C351        C352   1.406       .  A
C351        C358   1.518       .  S
C352        C353   1.405       .  A
C352        H357   1.083       .  S
C353        C354   1.421       .  A
C354        C355   1.523       .  S
C355        F359   1.385       .  S
C355        F360   1.383       .  S
C355        F361   1.383       .  S
C358        F362   1.384       .  S
C358        F363   1.382       .  S
C358        F364   1.385       .  S
C365        C366   1.404       .  A
C365        C370   1.411       .  A
C365        H372   1.083       .  S
C366        C367   1.425       .  A
C367        C368   1.412       .  A
C367        C374   1.522       .  S
C368        C369   1.403       .  A
C368        H373   1.082       .  S
C369        C370   1.421       .  A
C370        C371   1.519       .  S
C371        F375   1.385       .  S
C371        F376   1.382       .  S
C371        F377   1.384       .  S
C374        F378   1.383       .  S
C374        F379   1.385       .  S
C374        F380   1.384       .  S
C381        C382   1.404       .  A
C381        C386   1.403       .  A
C381        H388   1.084       .  S
C382        C383   1.411       .  A
C383        C384   1.406       .  A
C383        C390   1.517       .  S
C384        C385   1.407       .  A
C384        H389   1.084       .  S
C385        C386   1.412       .  A
C386        C387   1.517       .  S
C387        F391   1.382       .  S
C387        F392   1.384       .  S
C387        F393   1.384       .  S
C390        F394   1.382       .  S
C390        F395   1.384       .  S
C390        F396   1.384       .  S
C397        C398   1.407   1_655  A
C397        C402   1.408       .  A
C397        H404   1.083       .  S
C398        C399   1.420       .  A
C399        C400   1.402       .  A
C399        C406   1.519       .  S
C400        C401   1.402   1_455  A
C400        H405   1.084       .  S
C401        C402   1.416       .  A
C402        C403   1.519       .  S
C403        F407   1.385       .  S
C403        F408   1.382       .  S
C403        F409   1.384       .  S
C406        F410   1.382       .  S
C406        F411   1.384       .  S
C406        F412   1.385       .  S
C413        C414   1.408       .  A
C413        C418   1.410       .  A
C413        H420   1.082       .  S
C414        C415   1.421       .  A
C415        C416   1.412       .  A
C415        C422   1.520       .  S
C416        C417   1.408       .  A
C416        H421   1.082       .  S
C417        C418   1.420       .  A
C418        C419   1.519       .  S
C419        F423   1.385       .  S
C419        F424   1.383       .  S
C419        F425   1.383       .  S
C422        F426   1.383       .  S
C422        F427   1.384       .  S
C422        F428   1.385       .  S
C429        C430   1.409   1_455  A
C429        C434   1.409       .  A
C429        H436   1.082       .  S
C430        C431   1.415       .  A
C431        C432   1.408       .  A
C431        C438   1.518       .  S
C432        C433   1.410   1_655  A
C432        H437   1.083       .  S
C433        C434   1.417       .  A
C434        C435   1.520       .  S
C435        F439   1.385       .  S
C435        F440   1.382       .  S
C435        F441   1.384       .  S
C438        F442   1.382       .  S
C438        F443   1.384       .  S
C438        F444   1.385       .  S
C445        C446   1.408   1_554  A
C445        C450   1.408       .  A
C445        H452   1.083       .  S
C446        C447   1.423       .  A
C447        C448   1.400   1_556  A
C447        C454   1.523       .  S
C448        C449   1.399       .  A
C448        H453   1.084       .  S
C449        C450   1.412       .  A
C450        C451   1.517       .  S
C451        F455   1.384       .  S
C451        F456   1.384       .  S
C451        F457   1.382       .  S
C454        F458   1.383   1_556  S
C454        F459   1.382       .  S
C454        F460   1.385   1_556  S
C461        C462   1.409       .  A
C461        C466   1.411       .  A
C461        H468   1.083       .  S
C462        C463   1.421       .  A
C463        C464   1.411       .  A
C463        C470   1.519       .  S
C464        C465   1.406       .  A
C464        H469   1.083       .  S
C465        C466   1.418       .  A
C466        C467   1.519       .  S
C467        F471   1.385       .  S
C467        F472   1.382       .  S
C467        F473   1.384       .  S
C470        F474   1.382       .  S
C470        F475   1.383       .  S
C470        F476   1.385       .  S
C477        C478   1.402       .  A
C477        C482   1.398       .  A
C477        H484   1.083       .  S
C478        C479   1.416       .  A
C479        C480   1.409       .  A
C479        C486   1.517       .  S
C480        C481   1.405       .  A
C480        H485   1.083       .  S
C481        C482   1.419       .  A
C482        C483   1.523       .  S
C483        F487   1.385       .  S
C483        F488   1.381       .  S
C483        F489   1.383   1_556  S
C486        F490   1.384       .  S
C486        F491   1.383       .  S
C486        F492   1.385       .  S
C493        C494   1.399       .  A
C493        C498   1.409       .  A
C493        H500   1.083       .  S
C494        C495   1.423   1_455  A
C495        C496   1.410       .  A
C495        C502   1.520       .  S
C496        C497   1.402       .  A
C496        H501   1.083       .  S
C497        C498   1.427   1_655  A
C498        C499   1.520       .  S
C499        F503   1.385       .  S
C499        F504   1.383       .  S
C499        F505   1.381       .  S
C502        F506   1.382       .  S
C502        F507   1.385       .  S
C502        F508   1.382       .  S
C509        C510   1.408   1_455  A
C509        C514   1.407       .  A
C509        H516   1.083       .  S
C510        C511   1.420       .  A
C511        C512   1.405       .  A
C511        C518   1.519       .  S
C512        C513   1.404   1_655  A
C512        H517   1.083       .  S
C513        C514   1.415       .  A
C514        C515   1.518       .  S
C515        F519   1.385       .  S
C515        F520   1.382       .  S
C515        F521   1.384       .  S
C518        F522   1.383       .  S
C518        F523   1.383       .  S
C518        F524   1.385       .  S
C525        C526   1.405       .  A
C525        C530   1.410       .  A
C525        H532   1.083       .  S
C526        C527   1.416       .  A
C527        C528   1.410       .  A
C527        C534   1.519       .  S
C528        C529   1.410       .  A
C528        H533   1.082       .  S
C529        C530   1.424       .  A
C530        C531   1.521       .  S
C531        F535   1.385       .  S
C531        F536   1.383       .  S
C531        F537   1.383       .  S
C534        F538   1.383       .  S
C534        F539   1.384       .  S
C534        F540   1.385       .  S
