geometry optimzed in LAMMPS
_audit_creation_date              2020-11-30 
_audit_creation_method            'lammps2cif' 
_symmetry_space_group_name_H-M    'P1' 
_symmetry_Int_Tables_number       1 
_symmetry_cell_setting            triclinic 
loop_ 
_symmetry_equiv_pos_as_xyz 
  x,y,z 
_cell_length_a                    41.46431449 
_cell_length_b                    41.37022800665465 
_cell_length_c                    55.68163783499776 
_cell_angle_alpha                 89.7396039753477 
_cell_angle_beta                  89.89438500711925 
_cell_angle_gamma                 119.59385650325825 
loop_ 
_atom_site_label 
_atom_site_type_symbol 
_atom_site_fract_x 
_atom_site_fract_y 
_atom_site_fract_z 
_atom_site_charge 
O1          O  0.99436488  0.14568745  0.95951299    -0.81400
C2          C  0.09271795  0.29910094  0.94738038     0.97900
O3          O  0.06359433  0.28002097  0.93548849    -0.70600
O4          O  0.06638102  0.22184379  0.91948368    -0.74200
Al5        Al  0.02956616  0.22826301  0.93589779     1.49000
C6          C  0.07527197  0.19698698  0.92269022     0.93200
O7          O  0.09305479  0.20349750  0.98361266    -0.80400
O8          O  0.01543154  0.22090854  0.00841305    -0.73900
Al9        Al  0.04344439  0.17804349  0.97126742     1.90100
O10         O  0.08884752  0.24494114  0.00474130    -0.73000
O11         O  0.02441998  0.27333200  0.97720571    -0.72900
O12         O  0.09550454  0.28996254  0.96873187    -0.78500
O13         O  0.99071229  0.23503711  0.94896628    -0.76700
O14         O  0.04251186  0.21977521  0.96486931    -1.12900
O15         O  0.49380031  0.17463212  0.93252012    -0.72000
C16         C  0.47960352  0.14456189  0.94388580     0.98700
C17         C  0.10596382  0.22806913  0.99963944     0.95100
Al18       Al  0.05494992  0.25423482  0.98769464     1.55600
O19         O  0.06547266  0.17692596  0.94137723    -0.76700
C20         C  0.99559949  0.25884210  0.96471371     0.99200
C21         C  0.00749102  0.18814326  0.01435181     0.94100
O22         O  0.02099266  0.17154948  0.00241145    -0.82000
O23         O  0.36424173  0.49808508  0.88154879    -0.81400
C24         C  0.21542084  0.41277230  0.89309574     0.97900
O25         O  0.24421577  0.43078511  0.90529094    -0.70600
O26         O  0.31333769  0.45613973  0.91554693    -0.74200
Al27       Al  0.28605661  0.47497888  0.89719360     1.49000
C28         C  0.32064081  0.43039950  0.91085035     0.93200
O29         O  0.30722997  0.40998146  0.84286649    -0.80400
O30         O  0.28764963  0.46140756  0.82006895    -0.73900
Al31       Al  0.33113243  0.45450555  0.86286276     1.90100
O32         O  0.24909781  0.39479818  0.84502009    -0.73000
O33         O  0.25604998  0.48776621  0.84708161    -0.72900
O34         O  0.21461856  0.41981738  0.87096106    -0.78500
O35         O  0.25591766  0.49652689  0.88546257    -0.76700
O36         O  0.29057826  0.45711959  0.86916143    -1.12900
O37         O  0.32692698  0.01964455  0.89360379    -0.72000
C38         C  0.35886434  0.02302097  0.89249519     0.98700
C39         C  0.27329680  0.38628559  0.83974012     0.95100
Al40       Al  0.25480829  0.44217563  0.84758552     1.55600
O41         O  0.32247489  0.42217136  0.88926511    -0.76700
C42         C  0.24785522  0.50163090  0.86431703     0.99200
C43         C  0.32211364  0.48434389  0.81924903     0.94100
O44         O  0.34312403  0.48694293  0.83634138    -0.82000
O45         O  0.35287122  0.41230168  0.28567043    -0.81400
C46         C  0.20142958  0.33532351  0.27883470     0.97900
O47         O  0.23024815  0.35314186  0.26637687    -0.70600
O48         O  0.29796252  0.40175786  0.25404987    -0.74200
Al49       Al  0.27488552  0.35443478  0.27164024     1.49000
C50         C  0.30483011  0.43420653  0.26001345     0.93200
O51         O  0.29399508  0.43457418  0.32844969    -0.80400
O52         O  0.28163497  0.36561012  0.34933384    -0.73900
Al53       Al  0.31892502  0.41850756  0.30648804     1.90100
O54         O  0.23643625  0.38952673  0.32765251    -0.73000
O55         O  0.25268313  0.30906724  0.32146045    -0.72900
O56         O  0.20386941  0.32914794  0.30098787    -0.78500
O57         O  0.24942578  0.30213860  0.28260141    -0.76700
O58         O  0.27993092  0.37451379  0.30040435    -1.12900
O59         O  0.31970226  0.35430161  0.27416675    -0.72000
C60         C  0.35052510  0.38364044  0.27586389     0.98700
C61         C  0.25998759  0.42238234  0.33282855     0.95100
Al62       Al  0.24635060  0.35046796  0.32302724     1.55600
O63         O  0.30646905  0.44222303  0.28195765    -0.76700
C64         C  0.24449013  0.28829258  0.30359854     0.99200
C65         C  0.31661194  0.37924654  0.34900507     0.94100
O66         O  0.33488160  0.39890362  0.33131704    -0.82000
O67         O  0.00244502  0.40826379  0.21598286    -0.81400
C68         C  0.08571771  0.33898241  0.22668471     0.97900
O69         O  0.07169422  0.35462831  0.23857364    -0.70600
O70         O  0.04897273  0.40112555  0.24898938    -0.74200
Al71       Al  0.02753477  0.35405463  0.23194209     1.49000
C72         C  0.07267473  0.43395400  0.24263553     0.93200
O73         O  0.08522333  0.43512790  0.17395888    -0.80400
O74         O  0.03601604  0.36516578  0.15373634    -0.73900
Al75       Al  0.04364179  0.41653826  0.19574518     1.90100
O76         O  0.10435301  0.39458134  0.17736111    -0.73000
O77         O  0.01199734  0.30867071  0.18242632    -0.72900
O78         O  0.07925860  0.33364674  0.20434513    -0.78500
O79         O  0.00314950  0.30258479  0.22139678    -0.76700
O80         O  0.04281744  0.37429029  0.20300680    -1.12900
O81         O  0.48823875  0.36669639  0.24036731    -0.72000
C82         C  0.47343312  0.38124101  0.22826597     0.98700
C83         C  0.11002683  0.42618451  0.17094745     0.95100
Al84       Al  0.05695349  0.35240895  0.18128097     1.55600
O85         O  0.07817865  0.44287701  0.22065859    -0.76700
C86         C  0.99549334  0.28924099  0.20044232     0.99200
C87         C  0.01245916  0.37638223  0.15285849     0.94100
O88         O  0.00910024  0.39380723  0.17042063    -0.82000
O89         O  0.37270283  0.03467364  0.11942159    -0.81400
C90         C  0.29950930  0.11452411  0.10922526     0.97900
O91         O  0.31552029  0.10103331  0.09718702    -0.70600
O92         O  0.36297558  0.08002546  0.08620105    -0.74200
Al93       Al  0.31643470  0.05760775  0.10400454     1.49000
C94         C  0.39575185  0.10416661  0.09199181     0.93200
O95         O  0.39851472  0.11926559  0.16021043    -0.80400
O96         O  0.33068503  0.06944217  0.18167524    -0.73900
Al97       Al  0.38043090  0.07638704  0.13911999     1.90100
O98         O  0.35654664  0.13605384  0.15677280    -0.73000
O99         O  0.27290911  0.04172353  0.15463856    -0.72900
O100        O  0.29469544  0.10813519  0.13159364    -0.78500
O101        O  0.26526627  0.03275809  0.11588971    -0.76700
O102        O  0.33749802  0.07400998  0.13238684    -1.12900
O103        O  0.31528002  0.01176838  0.10728142    -0.72000
C104        C  0.34415298  0.00927768  0.10930822     0.98700
C105        C  0.38846192  0.14339252  0.16329958     0.95100
Al106      Al  0.31565642  0.08784906  0.15430888     1.55600
O107        O  0.40532206  0.11034662  0.11373590    -0.76700
C108        C  0.25210483  0.02651743  0.13707494     0.99200
C109        C  0.34088951  0.04519873  0.18205617     0.94100
O110        O  0.35869990  0.04203395  0.16470874    -0.82000
O111        O  0.37577449  0.38926519  0.05170322    -0.81400
C112        C  0.30258053  0.23592939  0.05951769     0.97900
O113        O  0.31829046  0.26452675  0.07220879    -0.70600
O114        O  0.36611564  0.33184833  0.08433142    -0.74200
Al115      Al  0.31970973  0.30961249  0.06681492     1.49000
C116        C  0.39912391  0.34147627  0.07819288     0.93200
O117        O  0.40201844  0.33201317  0.01008433    -0.80400
O118        O  0.33307049  0.31539816  0.98863786    -0.73900
Al119      Al  0.38360128  0.35600096  0.03148428     1.90100
O120        O  0.35958347  0.27356935  0.01187101    -0.73000
O121        O  0.27452632  0.28306073  0.01630025    -0.72900
O122        O  0.29808987  0.23879044  0.03731440    -0.78500
O123        O  0.26862427  0.28504710  0.05537766    -0.76700
O124        O  0.34044411  0.31545317  0.03797138    -1.12900
O125        O  0.31910751  0.35489220  0.06535451    -0.72000
C126        C  0.34782755  0.38609517  0.06291443     0.98700
C127        C  0.39209804  0.29814632  0.00656967     0.95100
Al128      Al  0.31839615  0.28073881  0.01545202     1.55600
O129        O  0.40877246  0.34634719  0.05639659    -0.76700
C130        C  0.25465904  0.27813983  0.03450411     0.99200
C131        C  0.34494875  0.35010828  0.98856809     0.94100
O132        O  0.36247705  0.36985167  0.00624464    -0.82000
O133        O  0.11000029  0.13257134  0.79389651    -0.81400
C134        C  0.26116249  0.17788280  0.78374239     0.97900
O135        O  0.24374314  0.18984378  0.77145227    -0.70600
O136        O  0.18403889  0.13082516  0.75501760    -0.74200
Al137      Al  0.19254501  0.17510960  0.77114698     1.49000
C138        C  0.15720982  0.09799333  0.75751029     0.93200
O139        O  0.16207915  0.08592122  0.81924320    -0.80400
O140        O  0.18462968  0.18249504  0.84330179    -0.73900
Al141      Al  0.13948828  0.11289542  0.80633762     1.90100
O142        O  0.20591457  0.12935185  0.84014380    -0.73000
O143        O  0.23789518  0.22416973  0.81271137    -0.72900
O144        O  0.25157132  0.16632630  0.80500657    -0.78500
O145        O  0.20085532  0.22162877  0.78396403    -0.76700
O146        O  0.18260234  0.15363592  0.80019453    -1.12900
O147        O  0.14448015  0.16491584  0.76370903    -0.72000
C148        C  0.11386308  0.14955905  0.77434479     0.98700
C149        C  0.18765008  0.09571835  0.83446654     0.95100
Al150      Al  0.21690367  0.17377998  0.82328318     1.55600
O151        O  0.13754778  0.08947989  0.77635102    -0.76700
C152        C  0.22412557  0.23958981  0.80011216     0.99200
C153        C  0.15094608  0.16024778  0.84838738     0.94100
O154        O  0.13302442  0.12972062  0.83730040    -0.82000
O155        O  0.46589564  0.11902872  0.71500139    -0.81400
C156        C  0.37459703  0.17759168  0.72586791     0.97900
O157        O  0.39559214  0.17051363  0.73816900    -0.70600
O158        O  0.42009272  0.12548053  0.74802448    -0.74200
Al159      Al  0.43954521  0.17219173  0.73029423     1.49000
C160        C  0.39612678  0.09236184  0.74252627     0.93200
O161        O  0.38087766  0.08662884  0.67393169    -0.80400
O162        O  0.43080758  0.16228092  0.65349568    -0.73900
Al163      Al  0.42335903  0.10865929  0.69522736     1.90100
O164        O  0.36056321  0.12602160  0.67494299    -0.73000
O165        O  0.44680024  0.21773169  0.68147807    -0.72900
O166        O  0.37799704  0.18173556  0.70328681    -0.78500
O167        O  0.46110898  0.22324755  0.71939237    -0.76700
O168        O  0.42269486  0.15057375  0.70182913    -1.12900
O169        O  0.48670441  0.17660149  0.72579029    -0.72000
C170        C  0.49087126  0.14856294  0.72449656     0.98700
C171        C  0.35574292  0.09459969  0.66957411     0.95100
Al172      Al  0.40553685  0.17019635  0.68018367     1.55600
O173        O  0.39012424  0.08281369  0.72075454    -0.76700
C174        C  0.46362293  0.23781332  0.69900904     0.99200
C175        C  0.45408055  0.15076869  0.65270313     0.94100
O176        O  0.45655533  0.13144315  0.66945009    -0.82000
O177        O  0.46504273  0.39194846  0.45271469    -0.81400
C178        C  0.37370135  0.24297067  0.44234091     0.97900
O179        O  0.39580595  0.27081720  0.43037284    -0.70600
O180        O  0.41931743  0.33941754  0.42072672    -0.74200
Al181      Al  0.43939884  0.31274357  0.43818076     1.49000
C182        C  0.39569103  0.34938350  0.42617500     0.93200
O183        O  0.38316155  0.34192680  0.49578386    -0.80400
O184        O  0.42978271  0.31538652  0.51506668    -0.73900
Al185      Al  0.42404705  0.36114806  0.47320548     1.90100
O186        O  0.36041386  0.28245468  0.49194742    -0.73000
O187        O  0.44590475  0.27564833  0.48746322    -0.72900
O188        O  0.37725767  0.24271073  0.46498226    -0.78500
O189        O  0.46103397  0.28326564  0.44961753    -0.76700
O190        O  0.42273775  0.31832354  0.46648924    -1.12900
O191        O  0.48611844  0.35518072  0.44216752    -0.72000
C192        C  0.48962250  0.38712208  0.44272900     0.98700
C193        C  0.35727484  0.30919009  0.49939131     0.95100
Al194      Al  0.40482197  0.28205186  0.48806478     1.55600
O195        O  0.38999930  0.35387210  0.44800664    -0.76700
C196        C  0.46290990  0.27151647  0.47028503     0.99200
C197        C  0.45449212  0.34966530  0.51555124     0.94100
O198        O  0.45836169  0.37126737  0.49829186    -0.82000
O199        O  0.10845237  0.01970682  0.37121234    -0.81400
C200        C  0.25969648  0.11787879  0.38758996     0.97900
O201        O  0.23989828  0.08763511  0.39825100    -0.70600
O202        O  0.18397123  0.09628977  0.41233989    -0.74200
Al203      Al  0.18794418  0.05691400  0.39745792     1.49000
C204        C  0.15700620  0.10218721  0.40982253     0.93200
O205        O  0.16383622  0.11964270  0.34991768    -0.80400
O206        O  0.18452918  0.04614705  0.32342766    -0.73900
Al207      Al  0.13921224  0.06986807  0.36114187     1.90100
O208        O  0.21024515  0.12093481  0.33085439    -0.73000
O209        O  0.23122018  0.04822952  0.35618394    -0.72900
O210        O  0.25185387  0.12151061  0.36618511    -0.78500
O211        O  0.19224558  0.01641278  0.38531183    -0.76700
O212        O  0.18102117  0.06989388  0.36804645    -1.12900
O213        O  0.13812968  0.02298239  0.40424843    -0.72000
C214        C  0.10973972  0.00682454  0.39147016     0.98700
C215        C  0.19095429  0.13584989  0.33570813     0.95100
Al216      Al  0.21662091  0.08312226  0.34598883     1.55600
O217        O  0.13543375  0.08932672  0.39195504    -0.76700
C218        C  0.21512444  0.01953812  0.36926444     0.99200
C219        C  0.15194638  0.03783359  0.31731268     0.94100
O220        O  0.13480640  0.05036933  0.32947173    -0.82000
O221        O  0.08951941  0.49794683  0.61733309    -0.81400
C222        C  0.14689197  0.40483349  0.61017644     0.97900
O223        O  0.13868827  0.42433872  0.59712657    -0.70600
O224        O  0.09479388  0.44911687  0.58557098    -0.74200
Al225      Al  0.14150395  0.46935166  0.60301335     1.49000
C226        C  0.06138451  0.42663647  0.59153847     0.93200
O227        O  0.05697298  0.41496173  0.66073942    -0.80400
O228        O  0.13087532  0.46486383  0.68043584    -0.73900
Al229      Al  0.07870557  0.45649159  0.63822892     1.90100
O230        O  0.09590887  0.39403086  0.65979178    -0.73000
O231        O  0.18672474  0.48153391  0.65249279    -0.72900
O232        O  0.15305182  0.41115555  0.63241507    -0.78500
O233        O  0.19286411  0.49178994  0.61384405    -0.76700
O234        O  0.12017624  0.45494381  0.63188057    -1.12900
O235        O  0.14665871  0.01643683  0.60587085    -0.72000
C236        C  0.11922460  0.02153356  0.60670615     0.98700
C237        C  0.06465718  0.38956839  0.66534343     0.95100
Al238      Al  0.13990157  0.43923256  0.65434659     1.55600
O239        O  0.05192810  0.42199841  0.61345814    -0.76700
C240        C  0.20699440  0.49688169  0.63457560     0.99200
C241        C  0.12080537  0.48930449  0.68018712     0.94100
O242        O  0.10217178  0.49150001  0.66300269    -0.82000
O243        O  0.09118070  0.14094959  0.54866290    -0.81400
C244        C  0.14913428  0.29108281  0.55401068     0.97900
O245        O  0.14029179  0.26363667  0.56742599    -0.70600
O246        O  0.09631577  0.19585760  0.57958679    -0.74200
Al247      Al  0.14295995  0.22118882  0.56227255     1.49000
C248        C  0.06308084  0.18518703  0.57351022     0.93200
O249        O  0.05990988  0.19113013  0.50437857    -0.80400
O250        O  0.13347297  0.21369472  0.48457389    -0.73900
Al251      Al  0.08107208  0.17156532  0.52727453     1.90100
O252        O  0.09881075  0.25060238  0.50485108    -0.73000
O253        O  0.18922282  0.25319421  0.51263767    -0.72900
O254        O  0.15547189  0.29036738  0.53181951    -0.78500
O255        O  0.19369210  0.24916258  0.55155631    -0.76700
O256        O  0.12236652  0.21414500  0.53330665    -1.12900
O257        O  0.14791195  0.17837763  0.56064069    -0.72000
C258        C  0.12042605  0.14629298  0.55904640     0.98700
C259        C  0.06757496  0.22405712  0.49965995     0.95100
Al260      Al  0.14250601  0.24895204  0.51040623     1.55600
O261        O  0.05385050  0.17999053  0.55163178    -0.76700
C262        C  0.20845548  0.25809340  0.53099602     0.99200
C263        C  0.12282903  0.17909914  0.48503178     0.94100
O264        O  0.10501584  0.15957536  0.50295549    -0.82000
C265        C  0.12142501  0.05462691  0.59480112    -0.05000
C266        C  0.13408191  0.06356037  0.57070319    -0.02100
C267        C  0.13421213  0.09394431  0.55901152     0.02900
C268        C  0.12133733  0.11510533  0.57120961    -0.05000
C269        C  0.10921908  0.10656726  0.59530153    -0.02100
C270        C  0.10935435  0.07647358  0.60707638     0.02900
C271        C  0.14546081  0.04068118  0.55748797     0.37500
C272        C  0.09669478  0.12874772  0.60821235     0.37500
C273        C  0.09788550  0.06855900  0.63206185     0.35900
C274        C  0.14728068  0.10336273  0.53438836     0.35900
N275        N  0.08881892  0.06229464  0.65198951    -0.38900
N276        N  0.15775003  0.11104739  0.51478320    -0.38900
N277        N  0.08665734  0.14592506  0.61906912    -0.38300
N278        N  0.15447717  0.02250941  0.54680178    -0.38300
C279        C  0.14796791  0.37380039  0.59824591    -0.05000
C280        C  0.18219035  0.37626773  0.59234508    -0.02100
C281        C  0.18321626  0.35057138  0.57623747     0.02900
C282        C  0.15022052  0.32345002  0.56537362    -0.05000
C283        C  0.11611991  0.32140215  0.57102422    -0.02100
C284        C  0.11485725  0.34577849  0.58797479     0.02900
C285        C  0.21625498  0.40548530  0.60253270     0.37500
C286        C  0.08215084  0.29331123  0.55988037     0.37500
C287        C  0.07936053  0.34176944  0.59518104     0.35900
C288        C  0.21795035  0.35137229  0.57124487     0.35900
N289        N  0.05109053  0.33848895  0.60102840    -0.38900
N290        N  0.24562173  0.35188953  0.56732595    -0.38900
N291        N  0.05520939  0.27091668  0.55091381    -0.38300
N292        N  0.24353534  0.42878880  0.61058777    -0.38300
C293        C  0.14891872  0.12251276  0.42877014    -0.05000
C294        C  0.11718343  0.10306637  0.44335636    -0.02100
C295        C  0.10736062  0.12203919  0.46025538     0.02900
C296        C  0.13114822  0.16054270  0.46458156    -0.05000
C297        C  0.16392867  0.17982752  0.45041939    -0.02100
C298        C  0.17229893  0.16096770  0.43233472     0.02900
C299        C  0.09595607  0.06284444  0.44244089     0.37500
C300        C  0.18995955  0.21871117  0.45481941     0.37500
C301        C  0.20513789  0.18104513  0.41742553     0.35900
C302        C  0.07203745  0.10148633  0.47272164     0.35900
N303        N  0.23122513  0.19697330  0.40543005    -0.38900
N304        N  0.04378966  0.08497617  0.48251650    -0.38900
N305        N  0.21094241  0.24971601  0.45826251    -0.38300
N306        N  0.07926220  0.03072767  0.44275791    -0.38300
C307        C  0.47973229  0.36536972  0.53652554    -0.05000
C308        C  0.51525170  0.36867752  0.53589049    -0.02100
C309        C  0.04115852  0.38946219  0.55297230     0.02900
C310        C  0.03290055  0.40597834  0.57254790    -0.05000
C311        C  0.49606886  0.39997875  0.57436863    -0.02100
C312        C  0.47015192  0.38082508  0.55589923     0.02900
C313        C  0.02211224  0.35009673  0.51674870     0.37500
C314        C  0.48591241  0.41695163  0.59349843     0.37500
C315        C  0.43376952  0.37779092  0.55639749     0.35900
C316        C  0.07797105  0.39402815  0.55011907     0.35900
N317        N  0.40470243  0.37527039  0.55659818    -0.38900
N318        N  0.10729259  0.39781995  0.54723072    -0.38900
N319        N  0.47763412  0.43036863  0.60876180    -0.38300
N320        N  0.02935458  0.33495415  0.50212203    -0.38300
C321        C  0.02346875  0.42640437  0.43453663    -0.05000
C322        C  0.51495793  0.44479847  0.41695243    -0.02100
C323        C  0.04607152  0.47724461  0.40512842     0.02900
C324        C  0.08213251  0.48131245  0.40587670    -0.05000
C325        C  0.08816947  0.45703328  0.42115576    -0.02100
C326        C  0.05904008  0.43001417  0.43531976     0.02900
C327        C  0.47986225  0.44454694  0.41855758     0.37500
C328        C  0.12401890  0.45878534  0.42247263     0.37500
C329        C  0.06657556  0.40747645  0.45195087     0.35900
C330        C  0.03723806  0.00038744  0.39107803     0.35900
N331        N  0.07359050  0.39034219  0.46527494    -0.38900
N332        N  0.03266431  0.02251184  0.38126758    -0.38900
N333        N  0.15244106  0.45992836  0.42362610    -0.38300
N334        N  0.45211574  0.44479236  0.41981182    -0.38300
C335        C  0.34402285  0.21064756  0.42879748    -0.05000
C336        C  0.33398866  0.21598598  0.40522736    -0.02100
C337        C  0.30891616  0.18561488  0.39127254     0.02900
C338        C  0.29073696  0.14923277  0.40109019    -0.05000
C339        C  0.30002730  0.14395472  0.42496670    -0.02100
C340        C  0.32681418  0.17423385  0.43840430     0.02900
C341        C  0.34822462  0.25287444  0.39488139     0.37500
C342        C  0.28220517  0.10752091  0.43640568     0.37500
C343        C  0.33665691  0.16732948  0.46214904     0.35900
C344        C  0.30186404  0.19272739  0.36675110     0.35900
N345        N  0.34421422  0.16148951  0.48106552    -0.38900
N346        N  0.29660838  0.19871690  0.34724002    -0.38900
N347        N  0.26798083  0.07880656  0.44590120    -0.38300
N348        N  0.35897047  0.28159963  0.38581332    -0.38300
C349        C  0.48477748  0.25235872  0.47544739    -0.05000
C350        C  0.02633629  0.27308478  0.46313554    -0.02100
C351        C  0.05078711  0.26042886  0.47067964     0.02900
C352        C  0.53240665  0.22624855  0.49208662    -0.05000
C353        C  0.49800059  0.21419342  0.50342918    -0.02100
C354        C  0.47409501  0.22679486  0.49508008     0.02900
C355        C  0.03838339  0.30162780  0.44468445     0.37500
C356        C  0.48784073  0.19043447  0.52458006     0.37500
C357        C  0.43857430  0.21330372  0.50715035     0.35900
C358        C  0.08740089  0.27623227  0.45985522     0.35900
N359        N  0.41054772  0.20261518  0.51708376    -0.38900
N360        N  0.11659642  0.28886480  0.45123625    -0.38900
N361        N  0.47913092  0.17153208  0.54146203    -0.38300
N362        N  0.04800201  0.32409081  0.42975273    -0.38300
C363        C  0.24900055  0.27540775  0.52776728    -0.05000
C364        C  0.26775277  0.25653294  0.53506256    -0.02100
C365        C  0.30437912  0.26917086  0.52715571     0.02900
C366        C  0.32255566  0.30112972  0.51213833    -0.05000
C367        C  0.30528682  0.32258529  0.50752936    -0.02100
C368        C  0.26831225  0.30931155  0.51488667     0.02900
C369        C  0.24864349  0.22284497  0.54943359     0.37500
C370        C  0.32458873  0.35724914  0.49414823     0.37500
C371        C  0.24978912  0.33016595  0.50863291     0.35900
C372        C  0.32303439  0.24879656  0.53430255     0.35900
N373        N  0.23507476  0.34679805  0.50355018    -0.38900
N374        N  0.33772390  0.23236943  0.53996226    -0.38900
N375        N  0.33999849  0.38492656  0.48351255    -0.38300
N376        N  0.23343894  0.19603832  0.56094471    -0.38300
C377        C  0.47967411  0.16036336  0.63202718    -0.05000
C378        C  0.47183122  0.13448319  0.61352870    -0.02100
C379        C  0.49855379  0.14144645  0.59551703     0.02900
C380        C  0.03449607  0.17745489  0.59245213    -0.05000
C381        C  0.04173621  0.20305274  0.61125848    -0.02100
C382        C  0.51413920  0.19348613  0.63234666     0.02900
C383        C  0.43620477  0.10054794  0.61320341     0.37500
C384        C  0.07687476  0.23742989  0.61233410     0.37500
C385        C  0.02323210  0.22140348  0.64881412     0.35900
C386        C  0.49087038  0.11336464  0.57749853     0.35900
N387        N  0.03033817  0.24271391  0.66406931    -0.38900
N388        N  0.48482938  0.09086810  0.56320780    -0.38900
N389        N  0.10482930  0.26481683  0.61386548    -0.38300
N390        N  0.40766643  0.07362356  0.61304136    -0.38300
C391        C  0.03704771  0.35371568  0.67703922    -0.05000
C392        C  0.04827886  0.33747580  0.69537277    -0.02100
C393        C  0.02390922  0.30095065  0.70384154     0.02900
C394        C  0.48622968  0.27887211  0.69472285    -0.05000
C395        C  0.47392957  0.29597505  0.67766054    -0.02100
C396        C  0.49812427  0.33225235  0.66907673     0.02900
C397        C  0.08508698  0.35835718  0.70559645     0.37500
C398        C  0.43601325  0.27638689  0.66895358     0.37500
C399        C  0.48597253  0.34735675  0.64981984     0.35900
C400        C  0.03558003  0.28540523  0.72309565     0.35900
N401        N  0.47571403  0.35871434  0.63436308    -0.38900
N402        N  0.04472094  0.27335026  0.73878193    -0.38900
N403        N  0.40578439  0.26087273  0.66206088    -0.38300
N404        N  0.11449233  0.37497251  0.71369667    -0.38300
C405        C  0.31969091  0.06702386  0.65848577    -0.05000
C406        C  0.29788482  0.03170156  0.66908209    -0.02100
C407        C  0.26139414  0.00789967  0.66108132     0.02900
C408        C  0.24578394  0.01912755  0.64234336    -0.05000
C409        C  0.26856083  0.05328664  0.63045780    -0.02100
C410        C  0.30524340  0.07715422  0.63856361     0.02900
C411        C  0.31176668  0.02035300  0.68936829     0.37500
C412        C  0.25388088  0.06469489  0.61056698     0.37500
C413        C  0.32823050  0.11226508  0.62634108     0.35900
C414        C  0.24492713  0.46732861  0.66265980     0.35900
N415        N  0.34666317  0.14024899  0.61656872    -0.38900
N416        N  0.22930553  0.43642472  0.66856717    -0.38900
N417        N  0.24211978  0.07365461  0.59463173    -0.38300
N418        N  0.32168326  0.01030371  0.70568417    -0.38300
C419        C  0.13146842  0.51649177  0.70010969    -0.05000
C420        C  0.15752279  0.05218420  0.69709231    -0.02100
C421        C  0.16782049  0.07862246  0.71572195     0.02900
C422        C  0.14784096  0.06914441  0.73794035    -0.05000
C423        C  0.11869043  0.53378289  0.73956409    -0.02100
C424        C  0.11053146  0.50694370  0.72142079     0.02900
C425        C  0.17742550  0.06254993  0.67433203     0.37500
C426        C  0.09444164  0.52262409  0.76042216     0.37500
C427        C  0.07989758  0.46929352  0.72439512     0.35900
C428        C  0.19902992  0.11552658  0.71142871     0.35900
N429        N  0.05560539  0.43919991  0.72661567    -0.38900
N430        N  0.22402985  0.14483147  0.70783879    -0.38900
N431        N  0.07490545  0.51327691  0.77697810    -0.38300
N432        N  0.19310779  0.07074266  0.65614797    -0.38300
C433        C  0.08192245  0.14969194  0.76238292    -0.05000
C434        C  0.04749730  0.11658179  0.76105387    -0.02100
C435        C  0.51846503  0.11998570  0.75175095     0.02900
C436        C  0.02339728  0.14696923  0.73426280    -0.05000
C437        C  0.05857068  0.17948647  0.73459648    -0.02100
C438        C  0.08709792  0.18136772  0.74933939     0.02900
C439        C  0.04233089  0.08276356  0.77257918     0.37500
C440        C  0.06643067  0.21035860  0.71867547     0.37500
C441        C  0.12162355  0.21629569  0.75135707     0.35900
C442        C  0.48210433  0.08810927  0.75557510     0.35900
N443        N  0.14905463  0.24419047  0.75308167    -0.38900
N444        N  0.45386056  0.06204510  0.75954783    -0.38900
N445        N  0.07351325  0.23492758  0.70571362    -0.38300
N446        N  0.53734780  0.06411331  0.79026149    -0.38300
C447        C  0.29192263  0.17634094  0.77182115    -0.05000
C448        C  0.28386344  0.14534648  0.75742303    -0.02100
C449        C  0.30991963  0.14730878  0.74049235     0.02900
C450        C  0.34495806  0.17952430  0.73895136    -0.05000
C451        C  0.35399854  0.20964829  0.75452075    -0.02100
C452        C  0.32724281  0.20821724  0.77076203     0.02900
C453        C  0.24957329  0.11070572  0.76090581     0.37500
C454        C  0.39099993  0.24175995  0.75402657     0.37500
C455        C  0.33638953  0.23868344  0.78710829     0.35900
C456        C  0.30113489  0.11567513  0.72522240     0.35900
N457        N  0.34388054  0.26269124  0.80046700    -0.38900
N458        N  0.29392384  0.09042691  0.71304619    -0.38900
N459        N  0.42059131  0.26724322  0.75363758    -0.38300
N460        N  0.22290251  0.08245561  0.76383756    -0.38300
C461        C  0.34977842  0.41881404  0.07495850    -0.05000
C462        C  0.34979580  0.44762940  0.06141629    -0.02100
C463        C  0.35002564  0.47785548  0.07314815     0.02900
C464        C  0.35230308  0.48045618  0.09849546    -0.05000
C465        C  0.35471127  0.45285554  0.11196777    -0.02100
C466        C  0.35245808  0.42158717  0.10029791     0.02900
C467        C  0.34990780  0.44650923  0.03540186     0.37500
C468        C  0.35932154  0.45651630  0.13780818     0.37500
C469        C  0.35356806  0.39263116  0.11445314     0.35900
C470        C  0.34859914  0.00642897  0.05779039     0.35900
N471        N  0.35443863  0.36976921  0.12602610    -0.38900
N472        N  0.34884581  0.02941859  0.04573981    -0.38900
N473        N  0.36341596  0.45950653  0.15839478    -0.38300
N474        N  0.35063089  0.44656763  0.01463291    -0.38300
C475        C  0.28776974  0.13882051  0.09650539    -0.05000
C476        C  0.28561968  0.13825667  0.07102712    -0.02100
C477        C  0.28697226  0.16850535  0.05845315     0.02900
C478        C  0.29005573  0.19921716  0.07135093    -0.05000
C479        C  0.28312343  0.19524159  0.09648879    -0.02100
C480        C  0.28166631  0.16490913  0.10900936     0.02900
C481        C  0.28152088  0.10644237  0.05755364     0.37500
C482        C  0.27723700  0.22213841  0.10966625     0.37500
C483        C  0.27402390  0.16105424  0.13460583     0.35900
C484        C  0.28649457  0.16807067  0.03239428     0.35900
N485        N  0.26778727  0.15831544  0.15501253    -0.38900
N486        N  0.28639473  0.16740650  0.01160688    -0.38900
N487        N  0.27252165  0.24345944  0.12026532    -0.38300
N488        N  0.27808644  0.08112291  0.04672978    -0.38300
C489        C  0.42727426  0.34811589  0.09684506    -0.05000
C490        C  0.43101169  0.31838071  0.10599525    -0.02100
C491        C  0.97052177  0.33413782  0.11966213     0.02900
C492        C  0.98808381  0.36921469  0.13123685    -0.05000
C493        C  0.47891271  0.39107890  0.12204918    -0.02100
C494        C  0.45156948  0.38449308  0.10466498     0.02900
C495        C  0.40576777  0.28109355  0.09776499     0.37500
C496        C  0.50516904  0.42929872  0.12821952     0.37500
C497        C  0.44786530  0.41524212  0.09515501     0.35900
C498        C  0.98047324  0.30610099  0.12577039     0.35900
N499        N  0.44484693  0.43978894  0.08773411    -0.38900
N500        N  0.98841764  0.28358950  0.13026695    -0.38900
N501        N  0.52618591  0.45978616  0.13302238    -0.38300
N502        N  0.38491706  0.25166051  0.09102863    -0.38300
C503        C  0.41326709  0.17991369  0.17556360    -0.05000
C504        C  0.44433189  0.18515907  0.18936823    -0.02100
C505        C  0.97358811  0.22098671  0.20095236     0.02900
C506        C  0.45879302  0.24856051  0.19946377    -0.05000
C507        C  0.42716250  0.24317447  0.18691592    -0.02100
C508        C  0.40542543  0.20981894  0.17423298     0.02900
C509        C  0.45426059  0.15618347  0.19129132     0.37500
C510        C  0.41883725  0.27339071  0.18535818     0.37500
C511        C  0.37768957  0.20858075  0.15787944     0.35900
C512        C  0.00374426  0.22722922  0.21690246     0.35900
N513        N  0.35639783  0.20862476  0.14451862    -0.38900
N514        N  0.02775857  0.23233061  0.22969455    -0.38900
N515        N  0.41237892  0.29755584  0.18411866    -0.38300
N516        N  0.46254359  0.13331844  0.19278611    -0.38300
C517        C  0.14622527  0.45318885  0.15995771    -0.05000
C518        C  0.15936353  0.98932528  0.16889316    -0.02100
C519        C  0.19520394  0.01398729  0.16020833     0.02900
C520        C  0.21183320  0.00267358  0.14227676    -0.05000
C521        C  0.19911352  0.46664513  0.13363914    -0.02100
C522        C  0.16303565  0.44170375  0.14225979     0.02900
C523        C  0.14457126  0.00144819  0.18840960     0.37500
C524        C  0.21676305  0.45437111  0.11622919     0.37500
C525        C  0.14310593  0.40432975  0.13271008     0.35900
C526        C  0.21500390  0.05119443  0.17017794     0.35900
N527        N  0.12710274  0.37452999  0.12506111    -0.38900
N528        N  0.23036901  0.08056527  0.17850229    -0.38900
N529        N  0.23088862  0.44468811  0.10228237    -0.38300
N530        N  0.13295318  0.01134615  0.20390056    -0.38300
C531        C  0.09289378  0.46272324  0.26128694    -0.05000
C532        C  0.13018452  0.47411800  0.26684057    -0.02100
C533        C  0.14927346  0.99456044  0.28317785     0.02900
C534        C  0.13231046  0.01171503  0.29644755    -0.05000
C535        C  0.09494157  0.00149882  0.29055665    -0.02100
C536        C  0.07475633  0.97337128  0.27355388     0.02900
C537        C  0.14884574  0.45722533  0.25435830     0.37500
C538        C  0.07636365  0.01965740  0.30162494     0.37500
C539        C  0.03601560  0.96178303  0.26939394     0.35900
C540        C  0.18817288  0.00608840  0.28637485     0.35900
N541        N  0.00509402  0.95283117  0.26664420    -0.38900
N542        N  0.21923575  0.01522404  0.28877341    -0.38900
N543        N  0.06125347  0.03393416  0.31027557    -0.38300
N544        N  0.16360579  0.44361232  0.24442269    -0.38300
C545        C  0.33671829  0.37176467  0.36911479    -0.05000
C546        C  0.37391247  0.37920458  0.36574979    -0.02100
C547        C  0.39277436  0.37172721  0.38416482     0.02900
C548        C  0.37527893  0.35672665  0.40651680    -0.05000
C549        C  0.33774731  0.34738637  0.40954098    -0.02100
C550        C  0.31882209  0.35535509  0.39128919     0.02900
C551        C  0.39336358  0.39363116  0.34307429     0.37500
C552        C  0.31731787  0.32644764  0.43061543     0.37500
C553        C  0.28064719  0.34599333  0.39565743     0.35900
C554        C  0.43022852  0.37878228  0.37949882     0.35900
N555        N  0.25016688  0.33827943  0.39928911    -0.38900
N556        N  0.45983411  0.38405284  0.37542940    -0.38900
N557        N  0.30069202  0.30903961  0.44711060    -0.38300
N558        N  0.41946108  0.91886003  0.32837275    -0.38300
C559        C  0.31293617  0.46357912  0.24116786    -0.05000
C560        C  0.34061170  0.00362590  0.24319579    -0.02100
C561        C  0.34853651  0.03003767  0.22468331     0.02900
C562        C  0.33029548  0.01881299  0.20246955    -0.05000
C563        C  0.30217574  0.98163030  0.19933831    -0.02100
C564        C  0.29799410  0.45343813  0.21775005     0.02900
C565        C  0.36162107  0.01559935  0.26532335     0.37500
C566        C  0.29328317  0.46946534  0.17543301     0.37500
C567        C  0.26970915  0.41561788  0.21263935     0.35900
C568        C  0.37607220  0.06868418  0.22833079     0.35900
N569        N  0.24684533  0.38570566  0.20818569    -0.38900
N570        N  0.39786399  0.09951072  0.23149758    -0.38900
N571        N  0.28072433  0.46079869  0.15644348    -0.38300
N572        N  0.37848113  0.02524310  0.28292892    -0.38300
C573        C  0.38337288  0.38450074  0.26471095    -0.05000
C574        C  0.40798291  0.41486041  0.25008394    -0.02100
C575        C  0.43685638  0.41355157  0.23745606     0.02900
C576        C  0.44049372  0.38134807  0.23867566    -0.05000
C577        C  0.41505208  0.35062578  0.25279919    -0.02100
C578        C  0.38768291  0.35282223  0.26643854     0.02900
C579        C  0.40326385  0.44719818  0.24744035     0.37500
C580        C  0.94932487  0.34493045  0.27322403     0.37500
C581        C  0.36470055  0.32281233  0.28296244     0.35900
C582        C  0.46342664  0.44591480  0.22390705     0.35900
N583        N  0.34656290  0.29915724  0.29630463    -0.38900
N584        N  0.48461829  0.47179730  0.21316077    -0.38900
N585        N  0.96295353  0.33044492  0.28351955    -0.38300
N586        N  0.39972235  0.47309627  0.24521882    -0.38300
C587        C  0.10977320  0.32720772  0.23974038    -0.05000
C588        C  0.10596762  0.32125475  0.26510035    -0.02100
C589        C  0.13412170  0.31975419  0.27844397     0.02900
C590        C  0.16534790  0.32275729  0.26642944    -0.05000
C591        C  0.16383513  0.31863322  0.24113246    -0.02100
C592        C  0.13752524  0.32305903  0.22770377     0.02900
C593        C  0.07322099  0.31656404  0.27769579     0.37500
C594        C  0.18881985  0.30884262  0.22898617     0.37500
C595        C  0.14063643  0.32518004  0.20172312     0.35900
C596        C  0.13102516  0.31571459  0.30437005     0.35900
N597        N  0.14342013  0.32704163  0.18100559    -0.38900
N598        N  0.12841848  0.31246708  0.32505243    -0.38900
N599        N  0.20843891  0.30056602  0.21938843    -0.38300
N600        N  0.04713979  0.31267940  0.28783932    -0.38300
C601        C  0.20108647  0.17329062  0.32512474    -0.05000
C602        C  0.18860758  0.19596217  0.33621396    -0.02100
C603        C  0.20054389  0.23220488  0.32762618     0.02900
C604        C  0.22659102  0.24748813  0.30851874    -0.05000
C605        C  0.23686569  0.22431112  0.29616104    -0.02100
C606        C  0.22421290  0.18741710  0.30432470     0.02900
C607        C  0.16434822  0.18311906  0.35714871     0.37500
C608        C  0.26092377  0.23853298  0.27527654     0.37500
C609        C  0.23523989  0.16432095  0.29105004     0.35900
C610        C  0.18504717  0.25344927  0.33852946     0.35900
N611        N  0.24417532  0.14602393  0.28043475    -0.38900
N612        N  0.17218207  0.26965764  0.34750977    -0.38900
N613        N  0.27983848  0.24974855  0.25847397    -0.38300
N614        N  0.14498375  0.17321327  0.37379040    -0.38300
C615        C  0.22271052  0.98916839  0.36418815    -0.05000
C616        C  0.20310321  0.96488960  0.34538590    -0.02100
C617        C  0.21289777  0.44340609  0.33794972     0.02900
C618        C  0.24754254  0.44677349  0.34422370    -0.05000
C619        C  0.26801046  0.96781792  0.36311617    -0.02100
C620        C  0.25472186  0.99008984  0.37346065     0.02900
C621        C  0.16695553  0.95931302  0.33860261     0.37500
C622        C  0.29936939  0.96667787  0.37370090     0.37500
C623        C  0.27393466  0.01408127  0.39351493     0.35900
C624        C  0.19059724  0.41894918  0.31882881     0.35900
N625        N  0.28924252  0.03313785  0.40957573    -0.38900
N626        N  0.17285876  0.40049875  0.30317680    -0.38900
N627        N  0.32428734  0.96553629  0.38212371    -0.38300
N628        N  0.13760631  0.95399494  0.33378007    -0.38300
C629        C  0.33822401  0.51030330  0.79867220    -0.05000
C630        C  0.34457257  0.04834561  0.80124962    -0.02100
C631        C  0.36335420  0.07465190  0.78282411     0.02900
C632        C  0.37540626  0.06428994  0.76185470    -0.05000
C633        C  0.36521639  0.52442233  0.75837364    -0.02100
C634        C  0.34485722  0.49827989  0.77659986     0.02900
C635        C  0.33056228  0.05865037  0.82200456     0.37500
C636        C  0.37676819  0.51185890  0.73748374     0.37500
C637        C  0.33095070  0.45894830  0.77273993     0.35900
C638        C  0.36947403  0.11214654  0.78554593     0.35900
N639        N  0.31936050  0.42753465  0.76947164    -0.38900
N640        N  0.37421952  0.14192060  0.78816213    -0.38900
N641        N  0.38664600  0.50170607  0.72118088    -0.38300
N642        N  0.31881560  0.06680911  0.83828715    -0.38300
C643        C  0.22599051  0.02090718  0.86113631    -0.05000
C644        C  0.23254545  0.05235800  0.87464424    -0.02100
C645        C  0.21831764  0.07562609  0.86683608     0.02900
C646        C  0.19791107  0.06824178  0.84501550    -0.05000
C647        C  0.18968008  0.03534858  0.83246482    -0.02100
C648        C  0.20203316  0.01122924  0.84104288     0.02900
C649        C  0.25439024  0.06128553  0.89641287     0.37500
C650        C  0.17084417  0.02689150  0.80954794     0.37500
C651        C  0.19827372  0.48208096  0.82289832     0.35900
C652        C  0.22529896  0.10733677  0.88143313     0.35900
N653        N  0.19196276  0.45683415  0.81093529    -0.38900
N654        N  0.23122758  0.13256985  0.89327777    -0.38900
N655        N  0.15647599  0.01949119  0.79104164    -0.38300
N656        N  0.26226910  0.56325872  0.91538145    -0.38300
C657        C  0.26074106  0.34857002  0.82891552    -0.05000
C658        C  0.28427950  0.34207456  0.81350400    -0.02100
C659        C  0.27076720  0.30749060  0.80178130     0.02900
C660        C  0.23444727  0.27839025  0.80610961    -0.05000
C661        C  0.21051673  0.28478972  0.82069877    -0.02100
C662        C  0.22348809  0.31921673  0.83236949     0.02900
C663        C  0.32259381  0.37045659  0.80972511     0.37500
C664        C  0.17223556  0.25566118  0.82370762     0.37500
C665        C  0.19834857  0.32310653  0.84878173     0.35900
C666        C  0.29343621  0.30233821  0.78405371     0.35900
N667        N  0.17794966  0.32575791  0.86175852    -0.38900
N668        N  0.31102109  0.29858191  0.76933201    -0.35300
N669        N  0.14154180  0.23277051  0.82577079    -0.38300
N670        N  0.35334155  0.39282487  0.80687201    -0.38300
C671        C  0.32701637  0.40962004  0.93077412    -0.05000
C672        C  0.30792307  0.40317708  0.95302132    -0.02100
C673        C  0.31245428  0.38188904  0.97119222     0.02900
C674        C  0.33718348  0.36813205  0.96801020    -0.05000
C675        C  0.35589214  0.37386930  0.94594413    -0.02100
C676        C  0.35097782  0.39452306  0.92740299     0.02900
C677        C  0.28268791  0.41740500  0.95733879     0.37500
C678        C  0.38049697  0.35874830  0.94236728     0.37500
C679        C  0.37186843  0.40120172  0.90524325     0.35900
C680        C  0.29071848  0.37312136  0.99310443     0.35900
N681        N  0.38854140  0.40644228  0.88757955    -0.38900
N682        N  0.27341444  0.36621457  0.01058227    -0.38900
N683        N  0.39994879  0.34653114  0.93927703    -0.38300
N684        N  0.26257141  0.42866711  0.96105464    -0.38300
C685        C  0.42385474  0.12480467  0.07305432    -0.05000
C686        C  0.43067453  0.16007797  0.06545951    -0.02100
C687        C  0.95870089  0.18132557  0.04548437     0.02900
C688        C  0.98151610  0.16808261  0.03521848    -0.05000
C689        C  0.47320879  0.13023349  0.04629626    -0.02100
C690        C  0.44549631  0.11021838  0.06375657     0.02900
C691        C  0.40820587  0.17472008  0.07542116     0.37500
C692        C  0.00272772  0.12079031  0.03677617     0.37500
C693        C  0.43963262  0.07459864  0.07257238     0.35900
C694        C  0.96364141  0.21749755  0.03904918     0.35900
N695        N  0.43522914  0.04634429  0.07963950    -0.38900
N696        N  0.96799015  0.24670880  0.03448337    -0.38900
N697        N  0.02219711  0.10979239  0.03059624    -0.38300
N698        N  0.38963095  0.18541333  0.08366032    -0.38300
C699        C  0.09553120  0.18934491  0.90354962    -0.05000
C700        C  0.07777013  0.17442774  0.88155848    -0.02100
C701        C  0.09556323  0.16462514  0.86369355     0.02900
C702        C  0.13182495  0.17015606  0.86747529    -0.05000
C703        C  0.14974750  0.18576719  0.88949910    -0.02100
C704        C  0.13136194  0.19456883  0.90758995     0.02900
C705        C  0.04035286  0.16784323  0.87763385     0.37500
C706        C  0.18690759  0.19221731  0.89391391     0.37500
C707        C  0.14933090  0.20886734  0.93045990     0.35900
C708        C  0.07636976  0.15008469  0.84120596     0.35900
N709        N  0.16380834  0.21998335  0.94870846    -0.38900
N710        N  0.05964607  0.13876862  0.82368172    -0.38900
N711        N  0.21669661  0.19780194  0.89750913    -0.38300
N712        N  0.01051444  0.16248280  0.87454243    -0.38300
C713        C  0.39030224  0.05441117  0.90534037    -0.05000
C714        C  0.39203620  0.08933986  0.90721995    -0.02100
C715        C  0.41962660  0.11777759  0.92126619     0.02900
C716        C  0.44663662  0.11222576  0.93320771    -0.05000
C717        C  0.44450350  0.07715574  0.93192873    -0.02100
C718        C  0.41661256  0.04844100  0.91808554     0.02900
C719        C  0.36613595  0.09691060  0.89427582     0.37500
C720        C  0.97592061  0.07694605  0.93735500     0.37500
C721        C  0.41492525  0.01255228  0.91756544     0.35900
C722        C  0.41957897  0.15271906  0.92369669     0.35900
N723        N  0.41396722  0.98412217  0.91719282    -0.38900
N724        N  0.41912606  0.18035539  0.92546232    -0.38900
N725        N  0.99949292  0.07313085  0.94550465    -0.38300
N726        N  0.33884978  0.60068328  0.89069781    -0.38300
C727        C  0.18291481  0.38291210  0.90562780    -0.05000
C728        C  0.18803700  0.35812116  0.92051042    -0.02100
C729        C  0.15984492  0.33409696  0.93630730     0.02900
C730        C  0.12428790  0.33064520  0.93488372    -0.05000
C731        C  0.11820044  0.35324387  0.91819953    -0.02100
C732        C  0.14801278  0.38070259  0.90464285     0.02900
C733        C  0.22097036  0.35457505  0.91783158     0.37500
C734        C  0.08130274  0.34772969  0.91408049     0.37500
C735        C  0.14288885  0.40685410  0.88991528     0.35900
C736        C  0.16733199  0.31159907  0.95299756     0.35900
N737        N  0.13900640  0.42792203  0.87827137    -0.38900
N738        N  0.17399256  0.29429629  0.96640721    -0.38900
N739        N  0.05199470  0.34312466  0.90992113    -0.38300
N740        N  0.24636111  0.35042064  0.91521574    -0.38300
C741        C  0.46556951  0.26383560  0.97353185    -0.05000
C742        C  0.47411371  0.30132892  0.97224614    -0.02100
C743        C  0.44978742  0.31248034  0.98213225     0.02900
C744        C  0.41815404  0.28683614  0.99551319    -0.05000
C745        C  0.41155755  0.24984538  0.99826969    -0.02100
C746        C  0.43344295  0.23785300  0.98586775     0.02900
C747        C  0.50919091  0.32916824  0.96201100     0.37500
C748        C  0.38652679  0.22564652  0.01672021     0.37500
C749        C  0.42498263  0.19938711  0.98784666     0.35900
C750        C  0.45880239  0.35092603  0.97923254     0.35900
N751        N  0.41831382  0.16878368  0.98939175    -0.38900
N752        N  0.46639098  0.38170715  0.97691873    -0.38900
N753        N  0.36820706  0.20662131  0.03214984    -0.38300
N754        N  0.04193609  0.35917634  0.95936870    -0.38300
C755        C  0.14185177  0.23834579  0.01231541    -0.05000
C756        C  0.16167930  0.27262789  0.02504255    -0.02100
C757        C  0.19699541  0.28356290  0.03488896     0.02900
C758        C  0.21422725  0.26224885  0.03062226    -0.05000
C759        C  0.19384372  0.22715705  0.01959817    -0.02100
C760        C  0.15743369  0.21464736  0.01133757     0.02900
C761        C  0.14732123  0.29814734  0.02722446     0.37500
C762        C  0.21027287  0.20356227  0.01670379     0.37500
C763        C  0.13613216  0.17706050  0.00220699     0.35900
C764        C  0.21621635  0.31744982  0.04877550     0.35900
N765        N  0.11914926  0.14699794  0.99509542    -0.38900
N766        N  0.23147158  0.34431169  0.06000889    -0.38900
N767        N  0.22271043  0.18419860  0.01414875    -0.38300
N768        N  0.13628616  0.31884920  0.02896184    -0.38300
O769        O  0.99352580  0.64156241  0.95978908    -0.81400
C770        C  0.09133920  0.79432318  0.94683654     0.97900
O771        O  0.06183074  0.77531229  0.93535997    -0.70600
O772        O  0.06538205  0.71746897  0.92017454    -0.74200
Al773      Al  0.02819868  0.72383768  0.93601900     1.49000
C774        C  0.07509065  0.69330478  0.92381119     0.93200
O775        O  0.09101572  0.70000154  0.98509663    -0.80400
O776        O  0.01322176  0.71799431  0.00822988    -0.73900
Al777      Al  0.04200095  0.67439277  0.97210770     1.90100
O778        O  0.08666831  0.74204909  0.00533527    -0.73000
O779        O  0.02267608  0.76996105  0.97631615    -0.72900
O780        O  0.09409961  0.78601907  0.96842437    -0.78500
O781        O  0.98897403  0.73050977  0.94859674    -0.76700
O782        O  0.04090224  0.71589486  0.96517302    -1.12900
O783        O  0.49349847  0.67870511  0.93097114    -0.72000
C784        C  0.48087583  0.64814427  0.94162037     0.98700
C785        C  0.10367330  0.72485513  0.00090734     0.95100
Al786      Al  0.05309794  0.75091816  0.98756246     1.55600
O787        O  0.06535801  0.67345553  0.94261936    -0.76700
C788        C  0.99376392  0.75485559  0.96389189     0.99200
C789        C  0.00474422  0.68513150  0.01438196     0.94100
O790        O  0.01832592  0.66818251  0.00286378    -0.82000
O791        O  0.36334315  0.99796054  0.88253725    -0.81400
C792        C  0.21491477  0.90861805  0.89295663     0.97900
O793        O  0.24319129  0.92728537  0.90550562    -0.70600
O794        O  0.31249204  0.95419694  0.91594057    -0.74200
Al795      Al  0.28459487  0.97253408  0.89805711     1.49000
C796        C  0.32042447  0.92898702  0.91111836     0.93200
O797        O  0.30925117  0.91111315  0.84283881    -0.80400
O798        O  0.28767982  0.96309713  0.82079362    -0.73900
Al799      Al  0.33152857  0.95493127  0.86327872     1.90100
O800        O  0.25085790  0.89488197  0.84398504    -0.73000
O801        O  0.25313670  0.98546018  0.84847752    -0.72900
O802        O  0.21439242  0.91613853  0.87088318    -0.78500
O803        O  0.25388850  0.99364942  0.88703557    -0.76700
O804        O  0.29016332  0.95623771  0.86961642    -1.12900
O805        O  0.32899969  0.52128004  0.89190688    -0.72000
C806        C  0.36080055  0.52434120  0.89064984     0.98700
C807        C  0.27567079  0.88702612  0.83924712     0.95100
Al808      Al  0.25453889  0.94117315  0.84786691     1.55600
O809        O  0.32323112  0.92186599  0.88941479    -0.76700
C810        C  0.24557282  0.99919035  0.86610822     0.99200
C811        C  0.32219134  0.98580784  0.81993546     0.94100
O812        O  0.34328940  0.98800672  0.83691334    -0.82000
O813        O  0.35747898  0.91545260  0.28297221    -0.81400
C814        C  0.20591138  0.83870324  0.27680455     0.97900
O815        O  0.23427653  0.85579175  0.26386019    -0.70600
O816        O  0.30156181  0.90488794  0.25177241    -0.74200
Al817      Al  0.27930817  0.85755364  0.26874085     1.49000
C818        C  0.30782290  0.93685679  0.25821728     0.93200
O819        O  0.29853687  0.93643539  0.32683463    -0.80400
O820        O  0.28676068  0.86664455  0.34667449    -0.73900
Al821      Al  0.32355050  0.92091589  0.30434060     1.90100
O822        O  0.24124616  0.89073022  0.32568448    -0.73000
O823        O  0.25690134  0.81016397  0.31794096    -0.72900
O824        O  0.20880949  0.83180797  0.29870666    -0.78500
O825        O  0.25469306  0.80549663  0.27880611    -0.76700
O826        O  0.28461045  0.87677035  0.29791109    -1.12900
O827        O  0.32414244  0.85772181  0.27081389    -0.72000
C828        C  0.35488698  0.88702896  0.27266491     0.98700
C829        C  0.26437263  0.92358424  0.33099638     0.95100
Al830      Al  0.25119187  0.85198546  0.32046293     1.55600
O831        O  0.31054126  0.94483629  0.28021996    -0.76700
C832        C  0.24969687  0.79071966  0.29942438     0.99200
C833        C  0.32194830  0.88208044  0.34702434     0.94100
O834        O  0.34023988  0.90136804  0.32916028    -0.82000
O835        O  0.98533932  0.88922698  0.20591099    -0.81400
C836        C  0.08494244  0.83592854  0.22520999     0.97900
O837        O  0.05428919  0.82659425  0.23480131    -0.70600
O838        O  0.06323145  0.89265655  0.24709757    -0.74200
Al839      Al  0.02433105  0.84889118  0.23247633     1.49000
C840        C  0.06927071  0.92555048  0.24365982     0.93200
O841        O  0.08412070  0.93533171  0.18282174    -0.80400
O842        O  0.01951729  0.84200583  0.15755813    -0.73900
Al843      Al  0.03538600  0.90896590  0.19530708     1.90100
O844        O  0.09213699  0.89108001  0.16833136    -0.73000
O845        O  0.01920045  0.79754102  0.19195335    -0.72900
O846        O  0.09158367  0.84974217  0.20426545    -0.78500
O847        O  0.98464955  0.80414241  0.21962461    -0.76700
O848        O  0.03807225  0.86853865  0.20308646    -1.12900
O849        O  0.49028914  0.86924791  0.23802913    -0.72000
C850        C  0.47523839  0.88229474  0.22464419     0.98700
C851        C  0.10298353  0.92508111  0.17060693     0.95100
Al852      Al  0.05428434  0.84692965  0.18228580     1.55600
O853        O  0.05588848  0.93358131  0.22553380    -0.76700
C854        C  0.98954850  0.78461944  0.20408763     0.99200
C855        C  0.00785792  0.86400547  0.15153357     0.94100
O856        O  0.01498177  0.89167301  0.16449036    -0.82000
O857        O  0.37954157  0.53656967  0.12120122    -0.81400
C858        C  0.30650799  0.61701865  0.11162729     0.97900
O859        O  0.32328925  0.60439699  0.09954709    -0.70600
O860        O  0.37065725  0.58343664  0.08818624    -0.74200
Al861      Al  0.32388097  0.56051049  0.10565875     1.49000
C862        C  0.40334312  0.60741006  0.09419241     0.93200
O863        O  0.40464474  0.62050744  0.16257099    -0.80400
O864        O  0.33625247  0.56982079  0.18363935    -0.73900
Al865      Al  0.38702541  0.57797962  0.14122762     1.90100
O866        O  0.36206104  0.63667686  0.15936506    -0.73000
O867        O  0.27883606  0.54232962  0.15599168    -0.72900
O868        O  0.30075468  0.60940262  0.13381820    -0.78500
O869        O  0.27243953  0.53495503  0.11701615    -0.76700
O870        O  0.34416089  0.57572998  0.13433453    -1.12900
O871        O  0.32265036  0.51466661  0.10823388    -0.72000
C872        C  0.35125669  0.51176119  0.11048904     0.98700
C873        C  0.39413458  0.64428973  0.16567543     0.95100
Al874      Al  0.32153257  0.58863923  0.15634419     1.55600
O875        O  0.41267039  0.61266797  0.11603212    -0.76700
C876        C  0.25873387  0.52755079  0.13805164     0.99200
C877        C  0.34637067  0.54552337  0.18391476     0.94100
O878        O  0.36474410  0.54298130  0.16664116    -0.82000
O879        O  0.37326968  0.88791751  0.05272655    -0.81400
C880        C  0.30192471  0.73510844  0.06155921     0.97900
O881        O  0.31674050  0.76404038  0.07397508    -0.70600
O882        O  0.36422531  0.83181812  0.08555669    -0.74200
Al883      Al  0.31756833  0.80859365  0.06795514     1.49000
C884        C  0.39706428  0.84056432  0.07941105     0.93200
O885        O  0.39979239  0.83099859  0.01121362    -0.80400
O886        O  0.33061974  0.81314305  0.98995177    -0.73900
Al887      Al  0.38125912  0.85456215  0.03262054     1.90100
O888        O  0.35813999  0.77233226  0.01330014    -0.73000
O889        O  0.27228699  0.78031792  0.01765259    -0.72900
O890        O  0.29717054  0.73722092  0.03927353    -0.78500
O891        O  0.26646563  0.78332084  0.05662099    -0.76700
O892        O  0.33830977  0.81391191  0.03919576    -1.12900
O893        O  0.31623811  0.85330348  0.06559673    -0.72000
C894        C  0.34480574  0.88460741  0.06332859     0.98700
C895        C  0.39021712  0.79731250  0.00750048     0.95100
Al896      Al  0.31654671  0.77876805  0.01694477     1.55600
O897        O  0.40650007  0.84486797  0.05756937    -0.76700
C898        C  0.25247219  0.77593642  0.03577495     0.99200
C899        C  0.34242259  0.84786885  0.98968049     0.94100
O900        O  0.35985905  0.86788746  0.00731617    -0.82000
O901        O  0.11325918  0.63728402  0.79314382    -0.81400
C902        C  0.26332861  0.67691369  0.78415450     0.97900
O903        O  0.24689867  0.68974630  0.77159380    -0.70600
O904        O  0.18677195  0.63179343  0.75470356    -0.74200
Al905      Al  0.19586708  0.67635686  0.77062064     1.49000
C906        C  0.15863633  0.59967291  0.75658802     0.93200
O907        O  0.16170574  0.58648219  0.81778715    -0.80400
O908        O  0.18641987  0.68355303  0.84301476    -0.73900
Al909      Al  0.14071710  0.61508645  0.80527043     1.90100
O910        O  0.20514895  0.62869683  0.83973516    -0.73000
O911        O  0.24100917  0.72432775  0.81266598    -0.72900
O912        O  0.25276053  0.66521698  0.80529233    -0.78500
O913        O  0.20522988  0.72321994  0.78341143    -0.76700
O914        O  0.18465042  0.65485897  0.79963047    -1.12900
O915        O  0.14784862  0.66709391  0.76241743    -0.72000
C916        C  0.11714517  0.65300976  0.77306290     0.98700
C917        C  0.18652064  0.59533875  0.83347967     0.95100
Al918      Al  0.21835608  0.67380739  0.82313550     1.55600
O919        O  0.13797681  0.59189359  0.77492104    -0.76700
C920        C  0.22833803  0.74053727  0.79981571     0.99200
C921        C  0.15269813  0.66131768  0.84807983     0.94100
O922        O  0.13462402  0.63124899  0.83655287    -0.82000
O923        O  0.46647663  0.61562703  0.71388246    -0.81400
C924        C  0.37725308  0.67611256  0.72661979     0.97900
O925        O  0.39929727  0.66996936  0.73849675    -0.70600
O926        O  0.42249349  0.62345312  0.74727894    -0.74200
Al927      Al  0.44246118  0.67035975  0.72976993     1.49000
C928        C  0.39773265  0.59055949  0.74196851     0.93200
O929        O  0.38123078  0.58517031  0.67329055    -0.80400
O930        O  0.43280025  0.66213204  0.65342393    -0.73900
Al931      Al  0.42386111  0.60643977  0.69442100     1.90100
O932        O  0.36211494  0.62537106  0.67439823    -0.73000
O933        O  0.44826211  0.71745983  0.68193827    -0.72900
O934        O  0.37946645  0.67963541  0.70395756    -0.78500
O935        O  0.46516869  0.72165433  0.71924175    -0.76700
O936        O  0.42441003  0.64899734  0.70138029    -1.12900
O937        O  0.48875156  0.67347490  0.72438429    -0.72000
C938        C  0.49202087  0.64491829  0.72326131     0.98700
C939        C  0.35671732  0.59387123  0.66868128     0.95100
Al940      Al  0.40720605  0.66931646  0.68027841     1.55600
O941        O  0.39082739  0.58105577  0.72020999    -0.76700
C942        C  0.46671760  0.73694624  0.69930065     0.99200
C943        C  0.45482067  0.64907464  0.65200420     0.94100
O944        O  0.45657219  0.62867317  0.66832626    -0.82000
O945        O  0.46442228  0.89446257  0.45594501    -0.81400
C946        C  0.37747836  0.74460057  0.44234162     0.97900
O947        O  0.39987804  0.77330917  0.43115487    -0.70600
O948        O  0.42103449  0.84219618  0.42220903    -0.74200
Al949      Al  0.44200191  0.81636392  0.43991261     1.49000
C950        C  0.39692492  0.85172671  0.42719396     0.93200
O951        O  0.38134122  0.84133422  0.49664598    -0.80400
O952        O  0.42992217  0.81500786  0.51645993    -0.73900
Al953      Al  0.42284237  0.86182238  0.47508984     1.90100
O954        O  0.36018626  0.78202759  0.49372114    -0.73000
O955        O  0.44638162  0.77553972  0.48827940    -0.72900
O956        O  0.37858887  0.74399681  0.46515149    -0.78500
O957        O  0.46511954  0.78835847  0.45123656    -0.76700
O958        O  0.42328697  0.81980248  0.46805311    -1.12900
O959        O  0.48784858  0.85999163  0.44486915    -0.72000
C960        C  0.49039586  0.89145850  0.44654641     0.98700
C961        C  0.35617793  0.80856262  0.50064802     0.95100
Al962      Al  0.40525853  0.78240487  0.48909035     1.55600
O963        O  0.38984194  0.85495520  0.44899686    -0.76700
C964        C  0.46551714  0.77424147  0.47131773     0.99200
C965        C  0.45308953  0.84972720  0.51767559     0.94100
O966        O  0.45586633  0.87180036  0.50097973    -0.82000
O967        O  0.10990267  0.53774418  0.38219825    -0.81400
C968        C  0.26124906  0.62228197  0.38907154     0.97900
O969        O  0.23280139  0.60718983  0.40207359    -0.70600
O970        O  0.16474127  0.58608939  0.41340170    -0.74200
Al971      Al  0.18916865  0.56315324  0.39681579     1.49000
C972        C  0.15495428  0.60937865  0.40691644     0.93200
O973        O  0.16393284  0.61787365  0.33765719    -0.80400
O974        O  0.18333359  0.56567290  0.31866384    -0.73900
Al975      Al  0.14176735  0.57759412  0.36070704     1.90100
O976        O  0.22305695  0.63574475  0.33948426    -0.73000
O977        O  0.21664726  0.54345499  0.34791379    -0.72900
O978        O  0.25973955  0.61369465  0.36707524    -0.78500
O979        O  0.21506603  0.53756688  0.38705859    -0.76700
O980        O  0.18326504  0.57687969  0.36760222    -1.12900
O981        O  0.14586049  0.51702222  0.39461836    -0.72000
C982        C  0.11398516  0.51309934  0.39304147     0.98700
C983        C  0.19737090  0.64169230  0.33321854     0.95100
Al984      Al  0.21797605  0.58874562  0.34517349     1.55600
O985        O  0.15043675  0.61370441  0.38487808    -0.76700
C986        C  0.21897863  0.52751270  0.36644321     0.99200
C987        C  0.14871264  0.54269239  0.31865325     0.94100
O988        O  0.12901748  0.54119915  0.33643569    -0.82000
O989        O  0.08924699  0.99774015  0.61662035    -0.81400
C990        C  0.14642701  0.90466589  0.61224556     0.97900
O991        O  0.13789290  0.92344725  0.59877345    -0.70600
O992        O  0.09517961  0.94879693  0.58571923    -0.74200
Al993      Al  0.14124486  0.96871455  0.60404857     1.49000
C994        C  0.06164470  0.92616244  0.59144452     0.93200
O995        O  0.05471841  0.91463327  0.66056371    -0.80400
O996        O  0.12604756  0.96310641  0.68134818    -0.73900
Al997      Al  0.07734616  0.95630761  0.63794310     1.90100
O998        O  0.09342136  0.89333273  0.65962487    -0.73000
O999        O  0.18371448  0.98184300  0.65480315    -0.72900
O1000       O  0.15274076  0.91184913  0.63437004    -0.78500
O1001       O  0.19206892  0.99042879  0.61608884    -0.76700
O1002       O  0.11878777  0.95458784  0.63252641    -1.12900
O1003       O  0.14643557  0.51673043  0.60532452    -0.72000
C1004       C  0.11896291  0.52161651  0.60693048     0.98700
C1005       C  0.06214766  0.88896240  0.66502646     0.95100
Al1006     Al  0.13738582  0.93884189  0.65558977     1.55600
O1007       O  0.05160971  0.92168279  0.61322993    -0.76700
C1008       C  0.20509080  0.99623449  0.63721287     0.99200
C1009       C  0.11729354  0.98846789  0.68047773     0.94100
O1010       O  0.10018218  0.99155351  0.66268948    -0.82000
O1011       O  0.09187427  0.64034883  0.54810555    -0.81400
C1012       C  0.14764434  0.79028041  0.55655497     0.97900
O1013       O  0.13874103  0.76233171  0.56945263    -0.70600
O1014       O  0.09526450  0.69404103  0.58065157    -0.74200
Al1015     Al  0.14195037  0.72039084  0.56355989     1.49000
C1016       C  0.06206282  0.68300923  0.57444564     0.93200
O1017       O  0.05899642  0.69110901  0.50585606    -0.80400
O1018       O  0.13347846  0.71648743  0.48581245    -0.73900
Al1019     Al  0.08076516  0.67113401  0.52769360     1.90100
O1020       O  0.09726586  0.75087617  0.50677844    -0.73000
O1021       O  0.18864276  0.75492803  0.51437941    -0.72900
O1022       O  0.15387351  0.79037191  0.53430896    -0.78500
O1023       O  0.19272440  0.74899646  0.55315617    -0.76700
O1024       O  0.12162750  0.71400012  0.53443784    -1.12900
O1025       O  0.14761279  0.67829636  0.56147972    -0.72000
C1026       C  0.12073926  0.64606078  0.55916643     0.98700
C1027       C  0.06619520  0.72396824  0.50155227     0.95100
Al1028     Al  0.14155797  0.75000413  0.51222209     1.55600
O1029       O  0.05311231  0.67771868  0.55255293    -0.76700
C1030       C  0.20770328  0.75883044  0.53271338     0.99200
C1031       C  0.12268584  0.68196962  0.48513588     0.94100
O1032       O  0.10462719  0.66061351  0.50233147    -0.82000
C1033       C  0.12040421  0.55401211  0.59486491    -0.05000
C1034       C  0.12392054  0.55733582  0.56955176    -0.02100
C1035       C  0.12458980  0.58785379  0.55780243     0.02900
C1036       C  0.12182293  0.61501332  0.57130631    -0.05000
C1037       C  0.11896218  0.61204955  0.59663250    -0.02100
C1038       C  0.11792119  0.58135886  0.60836996     0.02900
C1039       C  0.12569192  0.52884177  0.55544228     0.37500
C1040       C  0.11660673  0.64024783  0.61071912     0.37500
C1041       C  0.11472638  0.57812133  0.63434546     0.35900
C1042       C  0.12879526  0.59176583  0.53188681     0.35900
N1043       N  0.11211546  0.57560240  0.65505266    -0.38900
N1044       N  0.13233335  0.59508048  0.51124373    -0.38900
N1045       N  0.11484944  0.66250810  0.62228393    -0.38300
N1046       N  0.12704034  0.50625610  0.54399189    -0.38300
C1047       C  0.14748481  0.87332662  0.60098874    -0.05000
C1048       C  0.18166492  0.87654420  0.59409955    -0.02100
C1049       C  0.18223244  0.85035986  0.57824271     0.02900
C1050       C  0.14872440  0.82220643  0.56849746    -0.05000
C1051       C  0.11465128  0.81941521  0.57518221    -0.02100
C1052       C  0.11395686  0.84430292  0.59189999     0.02900
C1053       C  0.21605434  0.90735092  0.60278398     0.37500
C1054       C  0.08021406  0.79035784  0.56511180     0.37500
C1055       C  0.07869563  0.84041339  0.59960603     0.35900
C1056       C  0.21701946  0.85181575  0.57238623     0.35900
N1057       N  0.05065835  0.83736955  0.60579031    -0.38900
N1058       N  0.24480398  0.85292104  0.56787296    -0.38900
N1059       N  0.05290215  0.76716291  0.55701126    -0.38300
N1060       N  0.24336811  0.93210763  0.60970462    -0.38300
C1061       C  0.14777936  0.63074315  0.42575930    -0.05000
C1062       C  0.11381222  0.63113770  0.42639228    -0.02100
C1063       C  0.10591676  0.64867704  0.44551632     0.02900
C1064       C  0.13191947  0.66618557  0.46403246    -0.05000
C1065       C  0.16601554  0.66647893  0.46320734    -0.02100
C1066       C  0.17383252  0.64868886  0.44432745     0.02900
C1067       C  0.08597142  0.61160257  0.40820873     0.37500
C1068       C  0.19285472  0.68421880  0.48222514     0.37500
C1069       C  0.20887456  0.64892106  0.44435790     0.35900
C1070       C  0.07066424  0.64805851  0.44651793     0.35900
N1071       N  0.23702523  0.64952639  0.44513447    -0.38900
N1072       N  0.04257290  0.64763191  0.44748259    -0.38900
N1073       N  0.21458094  0.69807888  0.49724829    -0.38300
N1074       N  0.06364473  0.59592773  0.39376534    -0.38300
C1075       C  0.47849709  0.86535966  0.53862129    -0.05000
C1076       C  0.51357218  0.86761870  0.53799686    -0.02100
C1077       C  0.04167449  0.88809020  0.55323873     0.02900
C1078       C  0.03342218  0.90521066  0.57245016    -0.05000
C1079       C  0.49629716  0.90113467  0.57605569    -0.02100
C1080       C  0.47004018  0.88235226  0.55766953     0.02900
C1081       C  0.02334242  0.85006057  0.51630059     0.37500
C1082       C  0.48727955  0.91916826  0.59510742     0.37500
C1083       C  0.43456258  0.88130777  0.55795202     0.35900
C1084       C  0.07811061  0.89153710  0.55111534     0.35900
N1085       N  0.40629270  0.88056438  0.55804018    -0.38900
N1086       N  0.10711480  0.89427559  0.54889963    -0.38900
N1087       N  0.48014704  0.93364144  0.61029397    -0.38300
N1088       N  0.03068399  0.83601364  0.50097319    -0.38300
C1089       C  0.02084799  0.91991836  0.43140048    -0.05000
C1090       C  0.51662573  0.95099546  0.42281613    -0.02100
C1091       C  0.04304480  0.97273972  0.40350705     0.02900
C1092       C  0.07747462  0.97381435  0.40177486    -0.05000
C1093       C  0.08314098  0.94723077  0.41423511    -0.02100
C1094       C  0.05536762  0.92105765  0.42942853     0.02900
C1095       C  0.48090506  0.94963849  0.42370578     0.37500
C1096       C  0.11761021  0.94649114  0.41138160     0.37500
C1097       C  0.06353431  0.89698524  0.44416862     0.35900
C1098       C  0.03671509  0.49742348  0.38763155     0.35900
N1099       N  0.07077707  0.87842847  0.45600983    -0.38900
N1100       N  0.02885656  0.51285691  0.37344256    -0.38900
N1101       N  0.14473610  0.94522315  0.40928461    -0.38300
N1102       N  0.45267811  0.94897052  0.42442213    -0.38300
C1103       C  0.35015375  0.71177908  0.42776959    -0.05000
C1104       C  0.34386236  0.71633770  0.40297847    -0.02100
C1105       C  0.31689576  0.68620730  0.38961303     0.02900
C1106       C  0.29601407  0.65106418  0.40042824    -0.05000
C1107       C  0.30470282  0.64535515  0.42407487    -0.02100
C1108       C  0.33090282  0.67549542  0.43784749     0.02900
C1109       C  0.36396572  0.75205003  0.39073989     0.37500
C1110       C  0.28623404  0.60815483  0.43441059     0.37500
C1111       C  0.33739872  0.66855176  0.46243100     0.35900
C1112       C  0.30959381  0.69206438  0.36492917     0.35900
N1113       N  0.34200849  0.66254273  0.48206816    -0.38900
N1114       N  0.30426227  0.69717365  0.34525177    -0.38900
N1115       N  0.27152149  0.57851731  0.44261821    -0.38300
N1116       N  0.37992969  0.78018717  0.38065513    -0.38300
C1117       C  0.48826422  0.75561462  0.47586125    -0.05000
C1118       C  0.02155078  0.76658476  0.46219882    -0.02100
C1119       C  0.04671359  0.75525394  0.47046923     0.02900
C1120       C  0.53633295  0.72866610  0.49099055    -0.05000
C1121       C  0.50120044  0.71491544  0.50179312    -0.02100
C1122       C  0.47710265  0.72780168  0.49410203     0.02900
C1123       C  0.03085303  0.79013091  0.44105054     0.37500
C1124       C  0.49025827  0.68888369  0.52175108     0.37500
C1125       C  0.44059840  0.71182813  0.50515043     0.35900
C1126       C  0.08182390  0.76799842  0.45811137     0.35900
N1127       N  0.41167314  0.69895796  0.51418063    -0.38900
N1128       N  0.10984579  0.77810140  0.44829450    -0.38900
N1129       N  0.48078223  0.66811781  0.53768634    -0.38300
N1130       N  0.03814821  0.80844818  0.42393778    -0.38300
C1131       C  0.24831288  0.77603222  0.52957926    -0.05000
C1132       C  0.26728264  0.75752324  0.53731346    -0.02100
C1133       C  0.30378349  0.76981428  0.52918635     0.02900
C1134       C  0.32138997  0.80069309  0.51331317    -0.05000
C1135       C  0.30422389  0.82227355  0.50860370    -0.02100
C1136       C  0.26755441  0.80959194  0.51638303     0.02900
C1137       C  0.24857196  0.72456416  0.55236536     0.37500
C1138       C  0.32347784  0.85683890  0.49512253     0.37500
C1139       C  0.24934850  0.83089979  0.51049569     0.35900
C1140       C  0.32335748  0.75093679  0.53749351     0.35900
N1141       N  0.23482691  0.84786890  0.50582570    -0.38900
N1142       N  0.33903782  0.73603174  0.54425759    -0.38900
N1143       N  0.33876935  0.88452750  0.48448709    -0.38300
N1144       N  0.23367244  0.69827039  0.56436768    -0.38300
C1145       C  0.48051668  0.65903153  0.63133014    -0.05000
C1146       C  0.47299450  0.63374334  0.61246314    -0.02100
C1147       C  0.49958969  0.64189831  0.59411357     0.02900
C1148       C  0.03328621  0.67566717  0.59318988    -0.05000
C1149       C  0.04083897  0.70114005  0.61214925    -0.02100
C1150       C  0.51459825  0.69251991  0.63177681     0.02900
C1151       C  0.43797505  0.59914356  0.61213232     0.37500
C1152       C  0.07687066  0.73431570  0.61413943     0.37500
C1153       C  0.02118945  0.72139937  0.64835691     0.35900
C1154       C  0.49201051  0.61481059  0.57539414     0.35900
N1155       N  0.02785530  0.74376480  0.66282337    -0.38900
N1156       N  0.48597066  0.59323716  0.56043682    -0.38900
N1157       N  0.10552007  0.76064408  0.61651818    -0.38300
N1158       N  0.41000198  0.57158205  0.61191424    -0.38300
C1159       C  0.03459868  0.85306731  0.67666898    -0.05000
C1160       C  0.04625362  0.83684460  0.69476078    -0.02100
C1161       C  0.02259084  0.79991183  0.70274104     0.02900
C1162       C  0.49009042  0.77822526  0.69544187    -0.05000
C1163       C  0.47682977  0.79698042  0.68050469    -0.02100
C1164       C  0.50072530  0.83388439  0.67265943     0.02900
C1165       C  0.08289736  0.85814660  0.70515918     0.37500
C1166       C  0.43805814  0.77859588  0.67359997     0.37500
C1167       C  0.48639448  0.85188843  0.65698571     0.35900
C1168       C  0.03603122  0.78330854  0.72021492     0.35900
N1169       N  0.47463798  0.86616339  0.64466581    -0.38900
N1170       N  0.04680802  0.77019204  0.73421641    -0.38900
N1171       N  0.40711406  0.76400117  0.66819639    -0.38300
N1172       N  0.11213535  0.87519248  0.71343249    -0.38300
C1173       C  0.32090886  0.56721215  0.65666750    -0.05000
C1174       C  0.30042864  0.52979039  0.66431093    -0.02100
C1175       C  0.26464842  0.50610677  0.65515754     0.02900
C1176       C  0.24784570  0.51975552  0.63893796    -0.05000
C1177       C  0.26924729  0.55619012  0.62971032    -0.02100
C1178       C  0.30569629  0.57968932  0.63838699     0.02900
C1179       C  0.31458311  0.51575481  0.68289717     0.37500
C1180       C  0.25337454  0.57006744  0.61204376     0.37500
C1181       C  0.32767584  0.61672427  0.62832726     0.35900
C1182       C  0.23987141  0.97173171  0.67255660     0.35900
N1183       N  0.34538823  0.64622578  0.62025373    -0.38900
N1184       N  0.22286229  0.94310293  0.68191736    -0.38900
N1185       N  0.24074247  0.58115355  0.59790940    -0.38300
N1186       N  0.32454717  0.50336608  0.69784705    -0.38300
C1187       C  0.12803263  0.01565886  0.70033959    -0.05000
C1188       C  0.16119821  0.55293567  0.69702475    -0.02100
C1189       C  0.17027469  0.57986111  0.71522140     0.02900
C1190       C  0.14930276  0.57077450  0.73703225    -0.05000
C1191       C  0.11771434  0.03191185  0.74073687    -0.02100
C1192       C  0.10849444  0.00551580  0.72218763     0.02900
C1193       C  0.18242366  0.56284855  0.67479055     0.37500
C1194       C  0.09533759  0.01979456  0.76244651     0.37500
C1195       C  0.07802046  0.96778512  0.72527113     0.35900
C1196       C  0.20081990  0.61708258  0.71071209     0.35900
N1197       N  0.05377291  0.93768789  0.72758734    -0.38900
N1198       N  0.22518305  0.64669615  0.70693668    -0.38900
N1199       N  0.07738630  0.00943099  0.77970801    -0.38300
N1200       N  0.19921796  0.57082590  0.65703348    -0.38300
C1201       C  0.08495837  0.65282849  0.76076447    -0.05000
C1202       C  0.04880855  0.62205475  0.76353531    -0.02100
C1203       C  0.51873162  0.61555000  0.75076736     0.02900
C1204       C  0.02438023  0.64851516  0.73391694    -0.05000
C1205       C  0.06064520  0.67854088  0.73035696    -0.02100
C1206       C  0.09049931  0.68139293  0.74423239     0.02900
C1207       C  0.04217469  0.59062893  0.77866551     0.37500
C1208       C  0.06775122  0.70589080  0.71173578     0.37500
C1209       C  0.12675001  0.71427949  0.74166756     0.35900
C1210       C  0.48263553  0.58265584  0.75306632     0.35900
N1211       N  0.15560154  0.74056994  0.73965186    -0.38900
N1212       N  0.45441525  0.55583115  0.75550560    -0.38900
N1213       N  0.07419774  0.72772090  0.69674278    -0.38300
N1214       N  0.53692207  0.56030562  0.79044438    -0.38300
C1215       C  0.29408962  0.67452738  0.77271768    -0.05000
C1216       C  0.28578558  0.64401322  0.75776093    -0.02100
C1217       C  0.31234274  0.64572732  0.74129515     0.02900
C1218       C  0.34772630  0.67760814  0.74028303    -0.05000
C1219       C  0.35697873  0.70702485  0.75652105    -0.02100
C1220       C  0.33016800  0.70533381  0.77285605     0.02900
C1221       C  0.25073305  0.60992339  0.76036090     0.37500
C1222       C  0.39415850  0.73886672  0.75641194     0.37500
C1223       C  0.34012623  0.73403369  0.79073060     0.35900
C1224       C  0.30376781  0.61406728  0.72609320     0.35900
N1225       N  0.34838487  0.75644588  0.80540872    -0.38900
N1226       N  0.29686036  0.58873819  0.71406487    -0.38900
N1227       N  0.42386651  0.76416923  0.75618212    -0.38300
N1228       N  0.22339712  0.58207640  0.76262909    -0.38300
C1229       C  0.34573632  0.91710106  0.07498285    -0.05000
C1230       C  0.34995529  0.94759411  0.06121506    -0.02100
C1231       C  0.34796070  0.97702411  0.07244752     0.02900
C1232       C  0.34538454  0.97782621  0.09776464    -0.05000
C1233       C  0.34368077  0.94853211  0.11167165    -0.02100
C1234       C  0.34246861  0.91758201  0.10027895     0.02900
C1235       C  0.35659354  0.94894687  0.03555170     0.37500
C1236       C  0.34315749  0.95015876  0.13766958     0.37500
C1237       C  0.33879645  0.88665360  0.11473586     0.35900
C1238       C  0.34892386  0.50679204  0.05893040     0.35900
N1239       N  0.33572470  0.86204951  0.12639546    -0.38900
N1240       N  0.34811666  0.52964962  0.04731385    -0.38900
N1241       N  0.34323669  0.95133533  0.15842808    -0.38300
N1242       N  0.36263175  0.95079251  0.01514404    -0.38300
C1243       C  0.29431920  0.64116239  0.09910886    -0.05000
C1244       C  0.29073953  0.63980929  0.07366911    -0.02100
C1245       C  0.28892004  0.66848172  0.06109727     0.02900
C1246       C  0.29135324  0.69903171  0.07381228    -0.05000
C1247       C  0.28669851  0.69598881  0.09916448    -0.02100
C1248       C  0.28816763  0.66715475  0.11177834     0.02900
C1249       C  0.28889232  0.60900383  0.06010398     0.37500
C1250       C  0.28008847  0.72230987  0.11249567     0.37500
C1251       C  0.28444787  0.66544479  0.13773479     0.35900
C1252       C  0.28545417  0.66646458  0.03514440     0.35900
N1253       N  0.28165856  0.66476054  0.15844475    -0.38900
N1254       N  0.28285543  0.66436267  0.01443897    -0.38900
N1255       N  0.27478580  0.74316055  0.12320258    -0.38300
N1256       N  0.28753167  0.58465725  0.04914902    -0.38300
C1257       C  0.42546754  0.84735016  0.09805203    -0.05000
C1258       C  0.43364324  0.81926499  0.10453137    -0.02100
C1259       C  0.95954095  0.82154148  0.12094629     0.02900
C1260       C  0.98438268  0.85776848  0.12948602    -0.05000
C1261       C  0.47379954  0.88999735  0.12544005    -0.02100
C1262       C  0.44578969  0.88268272  0.10837422     0.02900
C1263       C  0.41299116  0.78335858  0.09307427     0.37500
C1264       C  0.49443160  0.92762560  0.13460850     0.37500
C1265       C  0.43808076  0.91197295  0.10111438     0.35900
C1266       C  0.96277724  0.78991501  0.12894682     0.35900
N1267       N  0.43214676  0.93543922  0.09535481    -0.38900
N1268       N  0.96600348  0.76473235  0.13464870    -0.38900
N1269       N  0.51065876  0.95771713  0.14178031    -0.38300
N1270       N  0.39574509  0.75533594  0.08334243    -0.38300
C1271       C  0.41862366  0.68097369  0.17756287    -0.05000
C1272       C  0.44763182  0.68579623  0.19328145    -0.02100
C1273       C  0.96781608  0.71697717  0.19966925     0.02900
C1274       C  0.46332034  0.75029947  0.20056224    -0.05000
C1275       C  0.43325935  0.74511985  0.18631695    -0.02100
C1276       C  0.41220357  0.71145100  0.17395106     0.02900
C1277       C  0.45507613  0.65557880  0.19797874     0.37500
C1278       C  0.42573199  0.77565809  0.18301099     0.37500
C1279       C  0.38688606  0.71030302  0.15563435     0.35900
C1280       C  0.00053213  0.72215939  0.21245825     0.35900
N1281       N  0.36770571  0.71055948  0.14068157    -0.38900
N1282       N  0.02671407  0.72650550  0.22259307    -0.38900
N1283       N  0.41989662  0.80008708  0.18051741    -0.38300
N1284       N  0.46123094  0.63159977  0.20167752    -0.38300
C1285       C  0.13895307  0.95306923  0.15929674    -0.05000
C1286       C  0.16467315  0.49054319  0.16757717    -0.02100
C1287       C  0.20031800  0.51541617  0.15872532     0.02900
C1288       C  0.21847023  0.50312897  0.14263859    -0.05000
C1289       C  0.19062467  0.96783403  0.13129043    -0.02100
C1290       C  0.15414373  0.94335102  0.13945211     0.02900
C1291       C  0.14814207  0.50335095  0.18553566     0.37500
C1292       C  0.20688336  0.95632201  0.11240683     0.37500
C1293       C  0.13239767  0.90833884  0.12707723     0.35900
C1294       C  0.21830936  0.55388969  0.16643152     0.35900
N1295       N  0.11511774  0.88048330  0.11713024    -0.38900
N1296       N  0.23214366  0.58438738  0.17283342    -0.38900
N1297       N  0.21992465  0.94714695  0.09738904    -0.38300
N1298       N  0.13553817  0.51418284  0.19982083    -0.38300
C1299       C  0.09119428  0.95520591  0.26155961    -0.05000
C1300       C  0.12855892  0.96605815  0.26633029    -0.02100
C1301       C  0.14897728  0.50097048  0.28495320     0.02900
C1302       C  0.13056854  0.51689506  0.29775991    -0.05000
C1303       C  0.09346528  0.50617328  0.29135733    -0.02100
C1304       C  0.07474216  0.47898857  0.27353662     0.02900
C1305       C  0.14579979  0.94795107  0.25359705     0.37500
C1306       C  0.07455149  0.52388290  0.30250106     0.37500
C1307       C  0.03657339  0.46784174  0.26767431     0.35900
C1308       C  0.18683437  0.51094387  0.29078937     0.35900
N1309       N  0.00613449  0.45905741  0.26310040    -0.38900
N1310       N  0.21704312  0.51865676  0.29525975    -0.38900
N1311       N  0.05945939  0.53805364  0.31130829    -0.38300
N1312       N  0.15924134  0.93326208  0.24338770    -0.38300
C1313       C  0.34194258  0.87676566  0.36828778    -0.05000
C1314       C  0.37970762  0.88551211  0.36639541    -0.02100
C1315       C  0.39716297  0.87696431  0.38532417     0.02900
C1316       C  0.37791624  0.86035491  0.40700860    -0.05000
C1317       C  0.34061840  0.85231811  0.40916856    -0.02100
C1318       C  0.32322679  0.86140188  0.39041267     0.02900
C1319       C  0.40160641  0.90386255  0.34511339     0.37500
C1320       C  0.31879808  0.83204015  0.42998775     0.37500
C1321       C  0.28628860  0.85593948  0.39457695     0.35900
C1322       C  0.43532143  0.88537124  0.38208737     0.35900
N1323       N  0.25698189  0.85190181  0.39803771    -0.38900
N1324       N  0.46560581  0.89186317  0.37923804    -0.38900
N1325       N  0.30083307  0.81518115  0.44623808    -0.38300
N1326       N  0.40927899  0.40515782  0.32516206    -0.38300
C1327       C  0.31371454  0.96566695  0.23970769    -0.05000
C1328       C  0.33670762  0.50205821  0.24607142    -0.02100
C1329       C  0.34703410  0.52901554  0.22754419     0.02900
C1330       C  0.33441406  0.51805102  0.20392867    -0.05000
C1331       C  0.30906179  0.48037967  0.19926635    -0.02100
C1332       C  0.29356482  0.95529634  0.21792731     0.02900
C1333       C  0.35148540  0.51444685  0.26995946     0.37500
C1334       C  0.28186456  0.97039645  0.17689085     0.37500
C1335       C  0.26299881  0.91787260  0.21470304     0.35900
C1336       C  0.37113159  0.56809251  0.23273177     0.35900
N1337       N  0.23831965  0.88827796  0.21178075    -0.38900
N1338       N  0.39011301  0.59923771  0.23704020    -0.38900
N1339       N  0.26573689  0.96114213  0.15900241    -0.38300
N1340       N  0.36322770  0.52456708  0.28899306    -0.38300
C1341       C  0.38722001  0.88779426  0.26112643    -0.05000
C1342       C  0.40876871  0.91557408  0.24403341    -0.02100
C1343       C  0.43665938  0.91322597  0.23091297     0.02900
C1344       C  0.44162263  0.88199435  0.23393351    -0.05000
C1345       C  0.41785397  0.85293859  0.24972520    -0.02100
C1346       C  0.39273773  0.85714573  0.26441596     0.02900
C1347       C  0.40205562  0.94630297  0.23956972     0.37500
C1348       C  0.92097569  0.81565832  0.25663983     0.37500
C1349       C  0.37395508  0.83092589  0.28389020     0.35900
C1350       C  0.46086635  0.94358866  0.21505545     0.35900
N1351       N  0.35949392  0.81062817  0.29975969    -0.38900
N1352       N  0.48018990  0.96788833  0.20246869    -0.38900
N1353       N  0.92289286  0.78881542  0.25876224    -0.38300
N1354       N  0.39708014  0.97098743  0.23570651    -0.38300
C1355       C  0.11251126  0.83047725  0.23925326    -0.05000
C1356       C  0.11451357  0.83462338  0.26472416    -0.02100
C1357       C  0.14235769  0.83222568  0.27778523     0.02900
C1358       C  0.16954951  0.82779820  0.26549367    -0.05000
C1359       C  0.16431181  0.81818696  0.24085319    -0.02100
C1360       C  0.13611006  0.81982532  0.22773412     0.02900
C1361       C  0.08933536  0.84309517  0.27784461     0.37500
C1362       C  0.18742641  0.80562014  0.22912277     0.37500
C1363       C  0.13083846  0.80953348  0.20257751     0.35900
C1364       C  0.14354860  0.83554858  0.30376914     0.35900
N1365       N  0.12645724  0.80108782  0.18255660    -0.38900
N1366       N  0.14429500  0.83806741  0.32448015    -0.38900
N1367       N  0.20579145  0.79550940  0.21979493    -0.38300
N1368       N  0.06957961  0.84969796  0.28882165    -0.38300
C1369       C  0.20685506  0.67729413  0.32088609    -0.05000
C1370       C  0.18772702  0.69646818  0.32689587    -0.02100
C1371       C  0.19984149  0.73232469  0.31763467     0.02900
C1372       C  0.23190208  0.74998303  0.30295303    -0.05000
C1373       C  0.24864183  0.72958514  0.29483146    -0.02100
C1374       C  0.23624955  0.69329038  0.30382655     0.02900
C1375       C  0.15687279  0.68059075  0.34375415     0.37500
C1376       C  0.27862591  0.74590461  0.27743637     0.37500
C1377       C  0.25375487  0.67249221  0.29541730     0.35900
C1378       C  0.17890488  0.75095913  0.32327144     0.35900
N1379       N  0.26777929  0.65595308  0.28872341    -0.38900
N1380       N  0.16150079  0.76501462  0.32785190    -0.38900
N1381       N  0.30211185  0.75841715  0.26321098    -0.38300
N1382       N  0.13226450  0.66827241  0.35717384    -0.38300
C1383       C  0.22597956  0.49638782  0.36307892    -0.05000
C1384       C  0.20140420  0.46681016  0.34847179    -0.02100
C1385       C  0.21850820  0.94596625  0.33334542     0.02900
C1386       C  0.25067763  0.94671142  0.34242911    -0.05000
C1387       C  0.27023080  0.47389543  0.36124964    -0.02100
C1388       C  0.25998566  0.49948665  0.36999249     0.02900
C1389       C  0.16453393  0.46128257  0.34374009     0.37500
C1390       C  0.30428807  0.47593131  0.36964364     0.37500
C1391       C  0.28536636  0.53031098  0.38483051     0.35900
C1392       C  0.20378661  0.92956184  0.31015827     0.35900
N1393       N  0.30575119  0.55508975  0.39648827    -0.38900
N1394       N  0.19298195  0.91780727  0.29124255    -0.38900
N1395       N  0.33141267  0.47748108  0.37636053    -0.38300
N1396       N  0.13509372  0.45679521  0.34025415    -0.38300
C1397       C  0.33812209  0.01168130  0.79924699    -0.05000
C1398       C  0.34956113  0.54818473  0.80192710    -0.02100
C1399       C  0.36864339  0.57432685  0.78349718     0.02900
C1400       C  0.37702169  0.56279770  0.76150413    -0.05000
C1401       C  0.36725264  0.02677927  0.75950851    -0.02100
C1402       C  0.34842793  0.00066825  0.77806342     0.02900
C1403       C  0.34049632  0.56007603  0.82417374     0.37500
C1404       C  0.38011243  0.01515512  0.73875630     0.37500
C1405       C  0.33939802  0.96229655  0.77525971     0.35900
C1406       C  0.37934130  0.61299424  0.78748407     0.35900
N1407       N  0.33185464  0.93164039  0.77263997    -0.38900
N1408       N  0.38790010  0.64373767  0.79104940    -0.38900
N1409       N  0.39063833  0.00582082  0.72237089    -0.38300
N1410       N  0.33286807  0.56940542  0.84181501    -0.38300
C1411       C  0.22754910  0.52255204  0.85876284    -0.05000
C1412       C  0.22963036  0.55098290  0.87377779    -0.02100
C1413       C  0.21406832  0.57319645  0.86634772     0.02900
C1414       C  0.19612053  0.56739128  0.84373753    -0.05000
C1415       C  0.19080338  0.53651301  0.82998318    -0.02100
C1416       C  0.20589933  0.51416486  0.83747259     0.02900
C1417       C  0.24799808  0.55787862  0.89684176     0.37500
C1418       C  0.17098893  0.52790163  0.80738883     0.37500
C1419       C  0.18922173  0.97583679  0.82901972     0.35900
C1420       C  0.21632131  0.60177322  0.88236401     0.35900
N1421       N  0.17865244  0.94771445  0.81932720    -0.38900
N1422       N  0.21824476  0.62440729  0.89534830    -0.38900
N1423       N  0.15534153  0.52023865  0.78931636    -0.38300
N1424       N  0.27154539  0.06827789  0.91390068    -0.38300
C1425       C  0.26415022  0.84938338  0.82873062    -0.05000
C1426       C  0.28868112  0.84287909  0.81434000    -0.02100
C1427       C  0.27604416  0.80807228  0.80305983     0.02900
C1428       C  0.23912205  0.77930803  0.80611962    -0.05000
C1429       C  0.21447793  0.78564656  0.81998432    -0.02100
C1430       C  0.22698668  0.81978753  0.83185640     0.02900
C1431       C  0.32716399  0.87134378  0.81136140     0.37500
C1432       C  0.17610943  0.75641964  0.82252225     0.37500
C1433       C  0.20165217  0.82288697  0.84850742     0.35900
C1434       C  0.30072533  0.80208540  0.78757703     0.35900
N1435       N  0.18114693  0.82474744  0.86179408    -0.38900
N1436       N  0.32025765  0.79765732  0.77483587    -0.35300
N1437       N  0.14543014  0.73335465  0.82429745    -0.38300
N1438       N  0.35803479  0.89375088  0.80910967    -0.38300
C1439       C  0.32611619  0.90762582  0.93116300    -0.05000
C1440       C  0.31033782  0.90524679  0.95430726    -0.02100
C1441       C  0.31392145  0.88367985  0.97269043     0.02900
C1442       C  0.33477459  0.86570973  0.96893282    -0.05000
C1443       C  0.34972565  0.86689710  0.94601608    -0.02100
C1444       C  0.34561804  0.88776506  0.92721708     0.02900
C1445       C  0.28945793  0.92406459  0.95955406     0.37500
C1446       C  0.36952679  0.84670631  0.94180595     0.37500
C1447       C  0.36263256  0.88934922  0.90412435     0.35900
C1448       C  0.29451659  0.87839978  0.99536812     0.35900
N1449       N  0.37624879  0.89049947  0.88573717    -0.38900
N1450       N  0.27889050  0.87392263  0.01338621    -0.38900
N1451       N  0.38500331  0.83032289  0.93832062    -0.38300
N1452       N  0.27295940  0.93911809  0.96403581    -0.38300
C1453       C  0.43124236  0.62909839  0.07522028    -0.05000
C1454       C  0.43913619  0.66536749  0.06925051    -0.02100
C1455       C  0.95633393  0.67997858  0.04535697     0.02900
C1456       C  0.97794529  0.66538152  0.03498352    -0.05000
C1457       C  0.47688301  0.63406942  0.04530395    -0.02100
C1458       C  0.45051209  0.61376296  0.06345092     0.02900
C1459       C  0.42086419  0.68162385  0.08278537     0.37500
C1460       C  0.99611806  0.61578067  0.03639893     0.37500
C1461       C  0.44377636  0.57708950  0.07049120     0.35900
C1462       C  0.96324661  0.71700432  0.03935445     0.35900
N1463       N  0.43865115  0.54794807  0.07608930    -0.38900
N1464       N  0.96905920  0.74681030  0.03505162    -0.38900
N1465       N  0.01475289  0.60369362  0.03041671    -0.38300
N1466       N  0.40592514  0.69352801  0.09424955    -0.38300
C1467       C  0.09575107  0.68604796  0.90471454    -0.05000
C1468       C  0.07823099  0.67168368  0.88259876    -0.02100
C1469       C  0.09681956  0.66393125  0.86420466     0.02900
C1470       C  0.13346894  0.67039260  0.86762109    -0.05000
C1471       C  0.15108888  0.68513738  0.88988607    -0.02100
C1472       C  0.13203679  0.69228303  0.90846025     0.02900
C1473       C  0.04020919  0.66353131  0.87903874     0.37500
C1474       C  0.18860844  0.69245570  0.89400679     0.37500
C1475       C  0.14977385  0.70594770  0.93146839     0.35900
C1476       C  0.07796705  0.65065411  0.84151658     0.35900
N1477       N  0.16405835  0.71656778  0.94983023    -0.38900
N1478       N  0.06140396  0.64040345  0.82386687    -0.38900
N1479       N  0.21867324  0.69870827  0.89738028    -0.38300
N1480       N  0.00988714  0.65685974  0.87624246    -0.38300
C1481       C  0.39323404  0.55720264  0.90217633    -0.05000
C1482       C  0.39116701  0.58964086  0.90775106    -0.02100
C1483       C  0.41853803  0.61795616  0.92201116     0.02900
C1484       C  0.44933611  0.61535594  0.93025162    -0.05000
C1485       C  0.45278112  0.58425724  0.92379293    -0.02100
C1486       C  0.42497332  0.55528321  0.90997002     0.02900
C1487       C  0.36178587  0.59528756  0.89818177     0.37500
C1488       C  0.98006317  0.57654673  0.93209393     0.37500
C1489       C  0.42980770  0.52388970  0.90380044     0.35900
C1490       C  0.41486860  0.65010151  0.92814217     0.35900
N1491       N  0.43407543  0.49911928  0.89882094    -0.38900
N1492       N  0.41161917  0.67558454  0.93278333    -0.38900
N1493       N  0.00588555  0.57441211  0.93750810    -0.38300
N1494       N  0.34592612  0.10388874  0.88422861    -0.38300
C1495       C  0.18237195  0.87781361  0.90502702    -0.05000
C1496       C  0.18782055  0.85449686  0.92115834    -0.02100
C1497       C  0.15896445  0.82989129  0.93641912     0.02900
C1498       C  0.12295930  0.82497971  0.93367424    -0.05000
C1499       C  0.11661749  0.84523097  0.91527745    -0.02100
C1500       C  0.14653375  0.87272135  0.90185778     0.02900
C1501       C  0.22172335  0.85248064  0.92008592     0.37500
C1502       C  0.07937268  0.83704557  0.90906580     0.37500
C1503       C  0.14024693  0.89560401  0.88476607     0.35900
C1504       C  0.16621021  0.80790646  0.95371432     0.35900
N1505       N  0.13505103  0.91373761  0.87115325    -0.38900
N1506       N  0.17253139  0.79080164  0.96750374    -0.38900
N1507       N  0.04984321  0.83005510  0.90326583    -0.38300
N1508       N  0.24771200  0.84906751  0.91877570    -0.38300
C1509       C  0.46482221  0.76630174  0.97280795    -0.05000
C1510       C  0.47120761  0.80300908  0.97079122    -0.02100
C1511       C  0.44622036  0.81287068  0.98115018     0.02900
C1512       C  0.41629179  0.78689286  0.99564555    -0.05000
C1513       C  0.41150025  0.75062539  0.99868805    -0.02100
C1514       C  0.43437731  0.73993165  0.98629472     0.02900
C1515       C  0.50473434  0.83148767  0.95929764     0.37500
C1516       C  0.38634188  0.72541849  0.01672555     0.37500
C1517       C  0.42871499  0.70253868  0.98930491     0.35900
C1518       C  0.45236806  0.85021799  0.97715215     0.35900
N1519       N  0.42434844  0.67282941  0.99168177    -0.38900
N1520       N  0.45747973  0.88005341  0.97392688    -0.38900
N1521       N  0.36757058  0.70522507  0.03156725    -0.38300
N1522       N  0.03620747  0.85320025  0.94984720    -0.38300
C1523       C  0.13932217  0.73518782  0.01390915    -0.05000
C1524       C  0.15863602  0.76920215  0.02697051    -0.02100
C1525       C  0.19449234  0.78095656  0.03621377     0.02900
C1526       C  0.21203878  0.75994129  0.03185053    -0.05000
C1527       C  0.19183296  0.72474885  0.02095844    -0.02100
C1528       C  0.15542057  0.71195435  0.01266012     0.02900
C1529       C  0.14279320  0.79323447  0.03053867     0.37500
C1530       C  0.20843105  0.70127004  0.01831908     0.37500
C1531       C  0.13464621  0.67448862  0.00324151     0.35900
C1532       C  0.21387445  0.81531638  0.04961333     0.35900
N1533       N  0.11812506  0.64454714  0.99586321    -0.38900
N1534       N  0.22918041  0.84251562  0.06051409    -0.38900
N1535       N  0.22096818  0.68195013  0.01604027    -0.38300
N1536       N  0.13040086  0.81259255  0.03350569    -0.38300
O1537       O  0.49393460  0.14197467  0.96319589    -0.81400
C1538       C  0.59197515  0.29500262  0.94907737     0.97900
O1539       O  0.56198154  0.27570688  0.93816308    -0.70600
O1540       O  0.56671670  0.21817956  0.92297789    -0.74200
Al1541     Al  0.52913717  0.22387699  0.93906411     1.49000
C1542       C  0.57590419  0.19352095  0.92627682     0.93200
O1543       O  0.59203344  0.19886238  0.98754766    -0.80400
O1544       O  0.51679784  0.21885546  0.01178539    -0.73900
Al1545     Al  0.54296613  0.17422786  0.97482705     1.90100
O1546       O  0.59057703  0.24318819  0.00690117    -0.73000
O1547       O  0.52380372  0.26945081  0.97985692    -0.72900
O1548       O  0.59564735  0.28672438  0.97048280    -0.78500
O1549       O  0.48963552  0.22982627  0.95226363    -0.76700
O1550       O  0.54250921  0.21613386  0.96806196    -1.12900
O1551       O  0.99341081  0.17907480  0.92938198    -0.72000
C1552       C  0.97974540  0.14862124  0.94036120     0.98700
C1553       C  0.60612913  0.22443127  0.00283141     0.95100
Al1554     Al  0.55560609  0.25147944  0.99030804     1.55600
O1555       O  0.56561190  0.17305731  0.94487109    -0.76700
C1556       C  0.49445376  0.25395393  0.96779673     0.99200
C1557       C  0.50728613  0.18560700  0.01751705     0.94100
O1558       O  0.52008836  0.16826837  0.00571166    -0.82000
O1559       O  0.86120560  0.49700804  0.88073259    -0.81400
C1560       C  0.71338308  0.40794952  0.89259327     0.97900
O1561       O  0.74203418  0.42629580  0.90489760    -0.70600
O1562       O  0.81152449  0.45391731  0.91511760    -0.74200
Al1563     Al  0.78307981  0.47167813  0.89743618     1.49000
C1564       C  0.81884784  0.42834062  0.91031842     0.93200
O1565       O  0.80593410  0.40964802  0.84227887    -0.80400
O1566       O  0.78537530  0.46387180  0.81982705    -0.73900
Al1567     Al  0.82908912  0.45363773  0.86213023     1.90100
O1568       O  0.74795955  0.39515491  0.84235230    -0.73000
O1569       O  0.75191103  0.48612738  0.84853589    -0.72900
O1570       O  0.71237318  0.41594104  0.87060293    -0.78500
O1571       O  0.75177213  0.49234141  0.88720118    -0.76700
O1572       O  0.78818238  0.45558213  0.86872795    -1.12900
O1573       O  0.82606264  0.02147729  0.89143860    -0.72000
C1574       C  0.85809299  0.02510697  0.89010536     0.98700
C1575       C  0.77232235  0.38654151  0.83803000     0.95100
Al1576     Al  0.75242274  0.44147621  0.84715328     1.55600
O1577       O  0.82104574  0.42085690  0.88859430    -0.76700
C1578       C  0.74356325  0.49856808  0.86646719     0.99200
C1579       C  0.82018239  0.48511688  0.81850855     0.94100
O1580       O  0.84109648  0.48620919  0.83530243    -0.82000
O1581       O  0.85770589  0.41329940  0.28116560    -0.81400
C1582       C  0.70631432  0.34079706  0.27604856     0.97900
O1583       O  0.73455595  0.35621490  0.26280950    -0.70600
O1584       O  0.80235135  0.40327603  0.25015718    -0.74200
Al1585     Al  0.77898665  0.35652774  0.26786369     1.49000
C1586       C  0.80939371  0.43577186  0.25595800     0.93200
O1587       O  0.80138052  0.43840127  0.32474615    -0.80400
O1588       O  0.78727368  0.36927659  0.34560145    -0.73900
Al1589     Al  0.82489434  0.42067260  0.30238244     1.90100
O1590       O  0.74337934  0.39445463  0.32356130    -0.73000
O1591       O  0.75548609  0.31144949  0.31810087    -0.72900
O1592       O  0.70917485  0.33433282  0.29801726    -0.78500
O1593       O  0.75308906  0.30508789  0.27903739    -0.76700
O1594       O  0.78507418  0.37709902  0.29660694    -1.12900
O1595       O  0.82341841  0.35512415  0.27002815    -0.72000
C1596       C  0.85445420  0.38419652  0.27150844     0.98700
C1597       C  0.76739350  0.42705547  0.32871861     0.95100
Al1598     Al  0.75159764  0.35435357  0.31949382     1.55600
O1599       O  0.81252429  0.44456630  0.27785419    -0.76700
C1600       C  0.74764306  0.29116189  0.29995742     0.99200
C1601       C  0.82214973  0.38215302  0.34541043     0.94100
O1602       O  0.84055217  0.40031192  0.32725050    -0.82000
O1603       O  0.48715574  0.39616595  0.20837014    -0.81400
C1604       C  0.58383978  0.33891124  0.22654069     0.97900
O1605       O  0.55339352  0.32958209  0.23657200    -0.70600
O1606       O  0.56058058  0.39425513  0.24956771    -0.74200
Al1607     Al  0.52253504  0.35105475  0.23414611     1.49000
C1608       C  0.56919463  0.42779801  0.24579849     0.93200
O1609       O  0.58550153  0.43800387  0.18456818    -0.80400
O1610       O  0.51721136  0.34489775  0.15987119    -0.73900
Al1611     Al  0.53662706  0.41318394  0.19733368     1.90100
O1612       O  0.59029037  0.39262783  0.16923625    -0.73000
O1613       O  0.51772160  0.29996948  0.19351752    -0.72900
O1614       O  0.58983400  0.35207529  0.20543529    -0.78500
O1615       O  0.48294224  0.30627150  0.22089538    -0.76700
O1616       O  0.53719040  0.37148777  0.20495468    -1.12900
O1617       O  0.98116161  0.35123634  0.22864122    -0.72000
C1618       C  0.97754336  0.37948199  0.22642233     0.98700
C1619       C  0.60287186  0.42683557  0.17163154     0.95100
Al1620     Al  0.55246621  0.34932761  0.18386870     1.55600
O1621       O  0.55821681  0.43731787  0.22722116    -0.76700
C1622       C  0.48790171  0.28685013  0.20536764     0.99200
C1623       C  0.50631092  0.36756655  0.15399288     0.94100
O1624       O  0.51511513  0.39594554  0.16668840    -0.82000
O1625       O  0.88020076  0.03604494  0.11804435    -0.81400
C1626       C  0.80647390  0.11585138  0.11176978     0.97900
O1627       O  0.82095101  0.10165812  0.09891468    -0.70600
O1628       O  0.86822910  0.08157748  0.08608363    -0.74200
Al1629     Al  0.82257759  0.05834319  0.10482331     1.49000
C1630       C  0.90136077  0.10554430  0.09130299     0.93200
O1631       O  0.90786441  0.11904412  0.15982154    -0.80400
O1632       O  0.84053020  0.06888964  0.18201528    -0.73900
Al1633     Al  0.88850031  0.07675229  0.13831236     1.90100
O1634       O  0.86555042  0.13569355  0.15768596    -0.73000
O1635       O  0.78120315  0.04194024  0.15649125    -0.72900
O1636       O  0.80266995  0.10915811  0.13413540    -0.78500
O1637       O  0.77182518  0.03279572  0.11788830    -0.76700
O1638       O  0.84510420  0.07439934  0.13282388    -1.12900
O1639       O  0.82221844  0.01276197  0.10701383    -0.72000
C1640       C  0.85145632  0.01075075  0.10822003     0.98700
C1641       C  0.89799345  0.14322408  0.16294169     0.95100
Al1642     Al  0.82438779  0.08796454  0.15566647     1.55600
O1643       O  0.91223767  0.11116934  0.11285046    -0.76700
C1644       C  0.75952427  0.02659253  0.13932537     0.99200
C1645       C  0.85011152  0.04419010  0.18144442     0.94100
O1646       O  0.86763669  0.04166077  0.16367785    -0.82000
O1647       O  0.87602462  0.38945767  0.05185535    -0.81400
C1648       C  0.80705256  0.23671045  0.06136343     0.97900
O1649       O  0.82346523  0.26601866  0.07334088    -0.70600
O1650       O  0.87022830  0.33456565  0.08443234    -0.74200
Al1651     Al  0.82251025  0.30990752  0.06781498     1.49000
C1652       C  0.90303147  0.34421885  0.07754583     0.93200
O1653       O  0.90186888  0.33328344  0.00927358    -0.80400
O1654       O  0.83207662  0.31453621  0.98953765    -0.73900
Al1655     Al  0.88398271  0.35665653  0.03132738     1.90100
O1656       O  0.86094511  0.27447802  0.01220079    -0.73000
O1657       O  0.77538806  0.28202292  0.01829789    -0.72900
O1658       O  0.80082860  0.23851237  0.03922601    -0.78500
O1659       O  0.77050355  0.28316371  0.05745456    -0.76700
O1660       O  0.84186851  0.31559614  0.03864573    -1.12900
O1661       O  0.81975292  0.35384607  0.06583186    -0.72000
C1662       C  0.84762551  0.38550544  0.06288327     0.98700
C1663       C  0.89262956  0.29960336  0.00582276     0.95100
Al1664     Al  0.81936742  0.28034991  0.01665480     1.55600
O1665       O  0.91118043  0.34802577  0.05549348    -0.76700
C1666       C  0.75585169  0.27622465  0.03673681     0.99200
C1667       C  0.84308493  0.34912942  0.98929925     0.94100
O1668       O  0.86078516  0.36931566  0.00677969    -0.82000
O1669       O  0.61298289  0.13886546  0.79504958    -0.81400
C1670       C  0.76253535  0.17745413  0.78400215     0.97900
O1671       O  0.74580998  0.19042280  0.77192662    -0.70600
O1672       O  0.68594920  0.13152664  0.75602350    -0.74200
Al1673     Al  0.69455157  0.17604824  0.77136614     1.49000
C1674       C  0.65742375  0.09973105  0.75782760     0.93200
O1675       O  0.66027081  0.08666632  0.81858846    -0.80400
O1676       O  0.68655374  0.18382746  0.84413730    -0.73900
Al1677     Al  0.63986409  0.11571160  0.80649800     1.90100
O1678       O  0.70509282  0.12868516  0.83992910    -0.73000
O1679       O  0.73991154  0.22452777  0.81297936    -0.72900
O1680       O  0.75233207  0.16551060  0.80516753    -0.78500
O1681       O  0.70330301  0.22247014  0.78388217    -0.76700
O1682       O  0.68390180  0.15503817  0.80051617    -1.12900
O1683       O  0.64629646  0.16611442  0.76330849    -0.72000
C1684       C  0.61628735  0.15346982  0.77464805     0.98700
C1685       C  0.68524562  0.09521581  0.83409290     0.95100
Al1686     Al  0.71808765  0.17404334  0.82361775     1.55600
O1687       O  0.63630151  0.09242495  0.77592170    -0.76700
C1688       C  0.72649438  0.24011370  0.80013336     0.99200
C1689       C  0.65293475  0.16167105  0.84956823     0.94100
O1690       O  0.63470780  0.13167663  0.83802695    -0.82000
O1691       O  0.96616979  0.11800005  0.71234443    -0.81400
C1692       C  0.87584416  0.17769009  0.72464897     0.97900
O1693       O  0.89719995  0.17066330  0.73657406    -0.70600
O1694       O  0.92054843  0.12448387  0.74557413    -0.74200
Al1695     Al  0.94089550  0.17178587  0.72832528     1.49000
C1696       C  0.89614064  0.09160389  0.73983158     0.93200
O1697       O  0.88206027  0.08797479  0.67090510    -0.80400
O1698       O  0.93225759  0.16346118  0.65143999    -0.73900
Al1699     Al  0.92411478  0.10879015  0.69253640     1.90100
O1700       O  0.86186581  0.12725589  0.67337283    -0.73000
O1701       O  0.94833715  0.21858011  0.67998132    -0.72900
O1702       O  0.87920215  0.18230141  0.70206114    -0.78500
O1703       O  0.96334327  0.22333943  0.71774232    -0.76700
O1704       O  0.92394075  0.15085464  0.69973439    -1.12900
O1705       O  0.98768287  0.17540387  0.72365474    -0.72000
C1706       C  0.99130304  0.14704380  0.72218197     0.98700
C1707       C  0.85697086  0.09618951  0.66706637     0.95100
Al1708     Al  0.90691454  0.17110850  0.67853713     1.55600
O1709       O  0.89038722  0.08241411  0.71795133    -0.76700
C1710       C  0.96568870  0.23834922  0.69750024     0.99200
C1711       C  0.95530183  0.15158663  0.65023634     0.94100
O1712       O  0.95769519  0.13196098  0.66684012    -0.82000
O1713       O  0.96475208  0.39593243  0.45439543    -0.81400
C1714       C  0.87808670  0.24636690  0.44048056     0.97900
O1715       O  0.90165903  0.27434121  0.42907007    -0.70600
O1716       O  0.92289461  0.34346931  0.42006482    -0.74200
Al1717     Al  0.94355786  0.31798046  0.43820803     1.49000
C1718       C  0.89806370  0.35204735  0.42472555     0.93200
O1719       O  0.87942640  0.34142277  0.49357424    -0.80400
O1720       O  0.93093552  0.31577585  0.51438438    -0.73900
Al1721     Al  0.92229471  0.36249798  0.47294841     1.90100
O1722       O  0.86060781  0.28246905  0.49247936    -0.73000
O1723       O  0.94668321  0.27588189  0.48620057    -0.72900
O1724       O  0.87883041  0.24586869  0.46327600    -0.78500
O1725       O  0.96715935  0.29085983  0.44967665    -0.76700
O1726       O  0.92379438  0.32088951  0.46619219    -1.12900
O1727       O  0.98898177  0.36196562  0.44372071    -0.72000
C1728       C  0.99125556  0.39331580  0.44544474     0.98700
C1729       C  0.85492641  0.30848431  0.49796912     0.95100
Al1730     Al  0.90583865  0.28336387  0.48723622     1.55600
O1731       O  0.89027219  0.35518837  0.44634163    -0.76700
C1732       C  0.96709080  0.27616149  0.46955160     0.99200
C1733       C  0.95292793  0.35069828  0.51579935     0.94100
O1734       O  0.95432657  0.37276712  0.49949696    -0.82000
O1735       O  0.60800062  0.03765709  0.38379375    -0.81400
C1736       C  0.75861403  0.12416683  0.38884371     0.97900
O1737       O  0.73068548  0.10771604  0.40216860    -0.70600
O1738       O  0.66274999  0.08557434  0.41423409    -0.74200
Al1739     Al  0.68748250  0.06327536  0.39707114     1.49000
C1740       C  0.65251185  0.10874211  0.40816571     0.93200
O1741       O  0.65932967  0.11767817  0.33865651    -0.80400
O1742       O  0.67936104  0.06616841  0.31926244    -0.73900
Al1743     Al  0.63870431  0.07746121  0.36198107     1.90100
O1744       O  0.71854016  0.13634642  0.34000242    -0.73000
O1745       O  0.71537267  0.04563026  0.34749079    -0.72900
O1746       O  0.75694661  0.11603787  0.36675405    -0.78500
O1747       O  0.71403713  0.03822739  0.38646420    -0.76700
O1748       O  0.68062647  0.07719171  0.36814358    -1.12900
O1749       O  0.64431487  0.01681580  0.39520352    -0.72000
C1750       C  0.61246392  0.01320901  0.39457766     0.98700
C1751       C  0.69252259  0.14172641  0.33382151     0.95100
Al1752     Al  0.71483748  0.09003155  0.34530788     1.55600
O1753       O  0.64797453  0.11354273  0.38620758    -0.76700
C1754       C  0.71870376  0.02944092  0.36556897     0.99200
C1755       C  0.64483682  0.04271985  0.31970720     0.94100
O1756       O  0.62567483  0.04107289  0.33782621    -0.82000
O1757       O  0.58830077  0.49747088  0.61880543    -0.81400
C1758       C  0.64512041  0.40377432  0.61236642     0.97900
O1759       O  0.63684850  0.42305350  0.59916050    -0.70600
O1760       O  0.59362790  0.44832153  0.58697977    -0.74200
Al1761     Al  0.63990935  0.46817072  0.60488270     1.49000
C1762       C  0.56021082  0.42553092  0.59271720     0.93200
O1763       O  0.55439877  0.41362529  0.66171001    -0.80400
O1764       O  0.62807168  0.46349824  0.68230334    -0.73900
Al1765     Al  0.57666775  0.45546298  0.63954826     1.90100
O1766       O  0.59365507  0.39301631  0.66141421    -0.73000
O1767       O  0.68473178  0.48043187  0.65472120    -0.72900
O1768       O  0.65115041  0.41020342  0.63459387    -0.78500
O1769       O  0.69082975  0.49011640  0.61598807    -0.76700
O1770       O  0.61823369  0.45388004  0.63363378    -1.12900
O1771       O  0.64442639  0.01668933  0.60781367    -0.72000
C1772       C  0.61653634  0.02080705  0.60961431     0.98700
C1773       C  0.56219588  0.38837369  0.66648941     0.95100
Al1774     Al  0.63766893  0.43812751  0.65631841     1.55600
O1775       O  0.55036265  0.42115388  0.61454553    -0.76700
C1776       C  0.70493444  0.49551607  0.63671639     0.99200
C1777       C  0.61773382  0.48772867  0.68201315     0.94100
O1778       O  0.59944998  0.49004581  0.66464752    -0.82000
O1779       O  0.58900246  0.13868829  0.55063199    -0.81400
C1780       C  0.64473206  0.28845284  0.55652478     0.97900
O1781       O  0.63777273  0.26129779  0.56973299    -0.70600
O1782       O  0.59502463  0.19349345  0.58212277    -0.74200
Al1783     Al  0.64074600  0.21918467  0.56380048     1.49000
C1784       C  0.56139937  0.18206378  0.57667349     0.93200
O1785       O  0.55408701  0.18677844  0.50793097    -0.80400
O1786       O  0.62609256  0.21198815  0.48667064    -0.73900
Al1787     Al  0.57716444  0.16836353  0.52990174     1.90100
O1788       O  0.59131581  0.24674076  0.50876388    -0.73000
O1789       O  0.68356535  0.25204780  0.51305319    -0.72900
O1790       O  0.64966312  0.28785622  0.53415526    -0.78500
O1791       O  0.69105296  0.24752137  0.55152867    -0.76700
O1792       O  0.61826135  0.21156604  0.53541855    -1.12900
O1793       O  0.64599533  0.17668378  0.56185426    -0.72000
C1794       C  0.61843219  0.14455907  0.56092627     0.98700
C1795       C  0.56063257  0.21937367  0.50351132     0.95100
Al1796     Al  0.63611529  0.24662428  0.51261996     1.55600
O1797       O  0.55110471  0.17633889  0.55501179    -0.76700
C1798       C  0.70439829  0.25677425  0.53054734     0.99200
C1799       C  0.61668647  0.17777734  0.48675960     0.94100
O1800       O  0.60020713  0.15701403  0.50454528    -0.82000
C1801       C  0.61713674  0.05266904  0.59742560    -0.05000
C1802       C  0.61798711  0.05430332  0.57203316    -0.02100
C1803       C  0.61861464  0.08459191  0.56007012     0.02900
C1804       C  0.61938697  0.11370857  0.57341559    -0.05000
C1805       C  0.61855403  0.11214724  0.59882295    -0.02100
C1806       C  0.61712331  0.08141564  0.61081023     0.02900
C1807       C  0.61739664  0.02450320  0.55805112     0.37500
C1808       C  0.61796502  0.14144718  0.61271435     0.37500
C1809       C  0.61589758  0.07944720  0.63685974     0.35900
C1810       C  0.61835196  0.08581824  0.53400949     0.35900
N1811       N  0.61480762  0.07787398  0.65762617    -0.38900
N1812       N  0.61793928  0.08673953  0.51324253    -0.38900
N1813       N  0.61740692  0.16448480  0.62412426    -0.38300
N1814       N  0.61698407  0.00107046  0.54655171    -0.38300
C1815       C  0.64615441  0.37263912  0.60072142    -0.05000
C1816       C  0.67985898  0.37736867  0.59137402    -0.02100
C1817       C  0.67959476  0.35070515  0.57557802     0.02900
C1818       C  0.64554361  0.32039088  0.56834665    -0.05000
C1819       C  0.61182724  0.31627047  0.57722445    -0.02100
C1820       C  0.61217059  0.34188004  0.59381260     0.02900
C1821       C  0.71454476  0.41011928  0.59753464     0.37500
C1822       C  0.57675578  0.28532427  0.56941005     0.37500
C1823       C  0.57749528  0.33699304  0.60356200     0.35900
C1824       C  0.71417143  0.35382570  0.56720847     0.35900
N1825       N  0.54994529  0.33314788  0.61141584    -0.38900
N1826       N  0.74166363  0.35604758  0.56056482    -0.38900
N1827       N  0.54888078  0.26064903  0.56313698    -0.38300
N1828       N  0.74212652  0.43640935  0.60239479    -0.38300
C1829       C  0.64462434  0.12918453  0.42736676    -0.05000
C1830       C  0.61293419  0.13382987  0.42614715    -0.02100
C1831       C  0.60415781  0.15047432  0.44536114     0.02900
C1832       C  0.62650215  0.16205995  0.46602545    -0.05000
C1833       C  0.65825846  0.15807683  0.46723136    -0.02100
C1834       C  0.66758405  0.14219769  0.44794858     0.02900
C1835       C  0.58818025  0.12005652  0.40575220     0.37500
C1836       C  0.68133987  0.17023598  0.48853064     0.37500
C1837       C  0.70149325  0.14027360  0.44932741     0.35900
C1838       C  0.57154979  0.15484454  0.44423421     0.35900
N1839       N  0.72876400  0.13921749  0.45090629    -0.38900
N1840       N  0.54557937  0.15839954  0.44345578    -0.38900
N1841       N  0.69957249  0.17971978  0.50556910    -0.38300
N1842       N  0.56815125  0.10922418  0.38959229    -0.38300
C1843       C  0.97875498  0.36658721  0.53649861    -0.05000
C1844       C  0.01383507  0.36888108  0.53562192    -0.02100
C1845       C  0.54146160  0.38822321  0.55409225     0.02900
C1846       C  0.53222106  0.40423530  0.57354484    -0.05000
C1847       C  0.99720365  0.40275550  0.57372663    -0.02100
C1848       C  0.97058245  0.38366487  0.55559576     0.02900
C1849       C  0.52495733  0.35200738  0.51632043     0.37500
C1850       C  0.98849131  0.42111907  0.59270921     0.37500
C1851       C  0.93482532  0.38200453  0.55630031     0.35900
C1852       C  0.57791598  0.39158718  0.55254416     0.35900
N1853       N  0.90625517  0.38060503  0.55668527    -0.38900
N1854       N  0.60690773  0.39416659  0.55076449    -0.38900
N1855       N  0.98151056  0.43583416  0.60781320    -0.38300
N1856       N  0.53283989  0.33857839  0.50087068    -0.38300
C1857       C  0.52074028  0.41818949  0.42958094    -0.05000
C1858       C  0.01783004  0.45177613  0.42052584    -0.02100
C1859       C  0.54353283  0.47236786  0.40277289     0.02900
C1860       C  0.57840427  0.47427133  0.40157310    -0.05000
C1861       C  0.58392987  0.44725846  0.41365216    -0.02100
C1862       C  0.55546529  0.41971596  0.42783520     0.02900
C1863       C  0.98292765  0.45199072  0.42171879     0.37500
C1864       C  0.61909022  0.44769016  0.41167487     0.37500
C1865       C  0.56299910  0.39440228  0.44170776     0.35900
C1866       C  0.53713746  0.00395947  0.39523092     0.35900
N1867       N  0.56955793  0.37465584  0.45280124    -0.38900
N1868       N  0.53006567  0.02360639  0.38443801    -0.38900
N1869       N  0.64686545  0.44751908  0.41037910    -0.38300
N1870       N  0.95539335  0.45268626  0.42277871    -0.38300
C1871       C  0.84926516  0.21411734  0.42641570    -0.05000
C1872       C  0.83983070  0.21948047  0.40262675    -0.02100
C1873       C  0.81215151  0.18943443  0.38956966     0.02900
C1874       C  0.79304237  0.15375280  0.40000160    -0.05000
C1875       C  0.80327408  0.14788212  0.42317424    -0.02100
C1876       C  0.83105440  0.17772233  0.43627941     0.02900
C1877       C  0.85702820  0.25604475  0.39142494     0.37500
C1878       C  0.78455407  0.11098263  0.43395412     0.37500
C1879       C  0.84035041  0.17033178  0.46001090     0.35900
C1880       C  0.80195664  0.19605668  0.36585838     0.35900
N1881       N  0.84708144  0.16381998  0.47897012    -0.38900
N1882       N  0.79439008  0.20204318  0.34699579    -0.38900
N1883       N  0.76935455  0.08178610  0.44278856    -0.38300
N1884       N  0.87043845  0.28477445  0.38197547    -0.38300
C1885       C  0.99098825  0.25885393  0.47406694    -0.05000
C1886       C  0.51744801  0.26087629  0.46249093    -0.02100
C1887       C  0.54124798  0.24800095  0.47092340     0.02900
C1888       C  0.03977634  0.23242051  0.48856131    -0.05000
C1889       C  0.00311801  0.21525334  0.49742827    -0.02100
C1890       C  0.97914923  0.22877080  0.49065203     0.02900
C1891       C  0.52731630  0.28347989  0.44087681     0.37500
C1892       C  0.99018053  0.18449096  0.51435539     0.37500
C1893       C  0.94237661  0.21160486  0.50134701     0.35900
C1894       C  0.57502029  0.25710044  0.45784290     0.35900
N1895       N  0.91344644  0.19795897  0.51040791    -0.38900
N1896       N  0.60191194  0.26408082  0.44745526    -0.38900
N1897       N  0.97939057  0.15969225  0.52764830    -0.38300
N1898       N  0.53517444  0.30116128  0.42345302    -0.38300
C1899       C  0.74502102  0.27405410  0.52569455    -0.05000
C1900       C  0.76606857  0.25889284  0.53548356    -0.02100
C1901       C  0.80263638  0.27133037  0.52719794     0.02900
C1902       C  0.81882980  0.29964505  0.50941604    -0.05000
C1903       C  0.79920756  0.31762653  0.50170530    -0.02100
C1904       C  0.76236640  0.30455498  0.50949979     0.02900
C1905       C  0.74974079  0.22950624  0.55339343     0.37500
C1906       C  0.81626355  0.34887444  0.48513117     0.37500
C1907       C  0.74232937  0.32274943  0.50074637     0.35900
C1908       C  0.82377780  0.25520418  0.53729652     0.35900
N1909       N  0.72638368  0.33721452  0.49368262    -0.38900
N1910       N  0.84064979  0.24238597  0.54539533    -0.38900
N1911       N  0.82978686  0.37394443  0.47202442    -0.38300
N1912       N  0.73675642  0.20620871  0.56778348    -0.38300
C1913       C  0.98099944  0.16150532  0.62937861    -0.05000
C1914       C  0.97368708  0.13580178  0.61076632    -0.02100
C1915       C  0.00030063  0.14362731  0.59242542     0.02900
C1916       C  0.53349834  0.17445697  0.59595157    -0.05000
C1917       C  0.54136925  0.20007650  0.61483214    -0.02100
C1918       C  0.01504469  0.19515433  0.62948552     0.02900
C1919       C  0.93895480  0.10092961  0.61079020     0.37500
C1920       C  0.57763984  0.23294743  0.61680231     0.37500
C1921       C  0.52170479  0.22104957  0.65069045     0.35900
C1922       C  0.99350519  0.11563569  0.57451694     0.35900
N1923       N  0.52821685  0.24372693  0.66490343    -0.38900
N1924       N  0.98832935  0.09326025  0.56031280    -0.38900
N1925       N  0.60655662  0.25897601  0.61904146    -0.38300
N1926       N  0.91119290  0.07314702  0.61084983    -0.38300
C1927       C  0.53457623  0.35255065  0.67802122    -0.05000
C1928       C  0.54549814  0.33701135  0.69695596    -0.02100
C1929       C  0.52131110  0.30051664  0.70544285     0.02900
C1930       C  0.98860938  0.27956783  0.69332207    -0.05000
C1931       C  0.97619926  0.29723694  0.67671092    -0.02100
C1932       C  0.00014753  0.33403401  0.66876788     0.02900
C1933       C  0.58193318  0.35844834  0.70761154     0.37500
C1934       C  0.93848101  0.27766893  0.66767905     0.37500
C1935       C  0.98702272  0.35074534  0.65115105     0.35900
C1936       C  0.53306072  0.28517584  0.72478944     0.35900
N1937       N  0.97609097  0.36378124  0.63720463    -0.38900
N1938       N  0.54231858  0.27319644  0.74045978    -0.38900
N1939       N  0.90848646  0.26212664  0.66037947    -0.38300
N1940       N  0.61105196  0.37551566  0.71603483    -0.38300
C1941       C  0.82102620  0.06947748  0.65539763    -0.05000
C1942       C  0.80214113  0.03154525  0.66205215    -0.02100
C1943       C  0.76583496  0.00768511  0.65385150     0.02900
C1944       C  0.74746515  0.02142398  0.63912335    -0.05000
C1945       C  0.76738614  0.05833950  0.63051517    -0.02100
C1946       C  0.80390633  0.08235297  0.63872896     0.02900
C1947       C  0.81874573  0.01698259  0.67853292     0.37500
C1948       C  0.74990586  0.07210457  0.61398163     0.37500
C1949       C  0.82374294  0.12043641  0.63003059     0.35900
C1950       C  0.74498150  0.46674463  0.66341005     0.35900
N1951       N  0.83957502  0.15084556  0.62314174    -0.38900
N1952       N  0.73009390  0.43576103  0.66913082    -0.38900
N1953       N  0.73601342  0.08308189  0.60072852    -0.38300
N1954       N  0.83104376  0.00427078  0.69164735    -0.38300
C1955       C  0.62829741  0.51496797  0.70191175    -0.05000
C1956       C  0.66177415  0.05220314  0.69918612    -0.02100
C1957       C  0.67058063  0.07927265  0.71721156     0.02900
C1958       C  0.64832825  0.07077523  0.73843117    -0.05000
C1959       C  0.61658854  0.53209586  0.74174120    -0.02100
C1960       C  0.60815610  0.50522142  0.72356215     0.02900
C1961       C  0.68358855  0.06186117  0.67722328     0.37500
C1962       C  0.59246028  0.52108550  0.76263996     0.37500
C1963       C  0.57784563  0.46746450  0.72679355     0.35900
C1964       C  0.70222146  0.11600665  0.71308928     0.35900
N1965       N  0.55375532  0.43732501  0.72928450    -0.38900
N1966       N  0.72752918  0.14516556  0.70962614    -0.38900
N1967       N  0.57289301  0.51178009  0.77917657    -0.38300
N1968       N  0.70085483  0.06990114  0.65966889    -0.38300
C1969       C  0.58409560  0.15340127  0.76276976    -0.05000
C1970       C  0.54852243  0.12164591  0.76451730    -0.02100
C1971       C  0.01816928  0.11559327  0.74773959     0.02900
C1972       C  0.52352319  0.14942084  0.73633445    -0.05000
C1973       C  0.55926350  0.18091627  0.73418780    -0.02100
C1974       C  0.58927573  0.18310586  0.74749420     0.02900
C1975       C  0.54258991  0.08968553  0.77881561     0.37500
C1976       C  0.56570723  0.21072506  0.71767722     0.37500
C1977       C  0.62543413  0.21627148  0.74552578     0.35900
C1978       C  0.98246040  0.08211875  0.74878098     0.35900
N1979       N  0.65425358  0.24268886  0.74385908    -0.38900
N1980       N  0.95459679  0.05472425  0.75035523    -0.38900
N1981       N  0.57151240  0.23469332  0.70448609    -0.38300
N1982       N  0.03786746  0.05560413  0.78160593    -0.38300
C1983       C  0.79327485  0.17552174  0.77195189    -0.05000
C1984       C  0.78495148  0.14496135  0.75701244    -0.02100
C1985       C  0.81084098  0.14728072  0.73967733     0.02900
C1986       C  0.84616076  0.17931059  0.73828907    -0.05000
C1987       C  0.85553023  0.20870946  0.75459430    -0.02100
C1988       C  0.82895189  0.20697240  0.77120442     0.02900
C1989       C  0.75061898  0.11031772  0.76050966     0.37500
C1990       C  0.89274709  0.24047453  0.75444943     0.37500
C1991       C  0.83872377  0.23658000  0.78836284     0.35900
C1992       C  0.80152512  0.11624461  0.72373927     0.35900
N1993       N  0.84672141  0.25983896  0.80239682    -0.38900
N1994       N  0.79391419  0.09152706  0.71097145    -0.38900
N1995       N  0.92252289  0.26566358  0.75430978    -0.38300
N1996       N  0.72382233  0.08221131  0.76363622    -0.38300
C1997       C  0.84787236  0.41784977  0.07410172    -0.05000
C1998       C  0.85103724  0.44757066  0.05993104    -0.02100
C1999       C  0.84811052  0.47671891  0.07077430     0.02900
C2000       C  0.84562703  0.47800545  0.09605568    -0.05000
C2001       C  0.84614644  0.45012130  0.11034855    -0.02100
C2002       C  0.84546563  0.41919209  0.09938175     0.02900
C2003       C  0.85797234  0.44861605  0.03432080     0.37500
C2004       C  0.84854737  0.45369373  0.13626185     0.37500
C2005       C  0.84343608  0.38931190  0.11423655     0.35900
C2006       C  0.85305316  0.00818068  0.05665754     0.35900
N2007       N  0.84161405  0.36551135  0.12620116    -0.38900
N2008       N  0.85284662  0.03130201  0.04499106    -0.38900
N2009       N  0.85143126  0.45653336  0.15691539    -0.38300
N2010       N  0.86434933  0.45022424  0.01397113    -0.38300
C2011       C  0.79508517  0.14106086  0.09981227    -0.05000
C2012       C  0.78872641  0.13846507  0.07464762    -0.02100
C2013       C  0.78977252  0.16841034  0.06177822     0.02900
C2014       C  0.79578797  0.20066657  0.07412821    -0.05000
C2015       C  0.79290378  0.19890899  0.09964522    -0.02100
C2016       C  0.79341605  0.16967337  0.11245010     0.02900
C2017       C  0.78063568  0.10476647  0.06183676     0.37500
C2018       C  0.78847389  0.22661680  0.11293980     0.37500
C2019       C  0.79329667  0.17000479  0.13851177     0.35900
C2020       C  0.78541591  0.16565423  0.03592327     0.35900
N2021       N  0.79333795  0.17053619  0.15929744    -0.38900
N2022       N  0.78229637  0.16260135  0.01527690    -0.38900
N2023       N  0.78461944  0.24844270  0.12358678    -0.38300
N2024       N  0.77399928  0.07789725  0.05161743    -0.38300
C2025       C  0.93283244  0.35289457  0.09554380    -0.05000
C2026       C  0.94289696  0.32606851  0.10203666    -0.02100
C2027       C  0.45855253  0.32469837  0.12324789     0.02900
C2028       C  0.48164346  0.36098291  0.13249781    -0.05000
C2029       C  0.98019047  0.39704168  0.12297079    -0.02100
C2030       C  0.95271916  0.38887319  0.10531934     0.02900
C2031       C  0.92490956  0.29024766  0.09027342     0.37500
C2032       C  0.00178583  0.43480077  0.13168180     0.37500
C2033       C  0.94562781  0.41788700  0.09663427     0.35900
C2034       C  0.46338602  0.29376639  0.13071159     0.35900
N2035       N  0.94025925  0.44112123  0.08950443    -0.38900
N2036       N  0.46764348  0.26909096  0.13611520    -0.38900
N2037       N  0.01932887  0.46499338  0.13845362    -0.38300
N2038       N  0.91050863  0.26194958  0.08053426    -0.38300
C2039       C  0.92354596  0.18049271  0.17349055    -0.05000
C2040       C  0.95189915  0.18593362  0.18998657    -0.02100
C2041       C  0.46701925  0.21937792  0.20092782     0.02900
C2042       C  0.96686378  0.25050012  0.19574750    -0.05000
C2043       C  0.93792135  0.24476906  0.18014391    -0.02100
C2044       C  0.91802169  0.21092718  0.16797739     0.02900
C2045       C  0.96025774  0.15642148  0.19492849     0.37500
C2046       C  0.92950525  0.27454956  0.17600293     0.37500
C2047       C  0.89522060  0.20935702  0.14780385     0.35900
C2048       C  0.49959964  0.22504885  0.21410337     0.35900
N2049       N  0.87808228  0.20889496  0.13131846    -0.38900
N2050       N  0.52564628  0.22979304  0.22458369    -0.38900
N2051       N  0.92284157  0.29830800  0.17288367    -0.38300
N2052       N  0.96748001  0.13318671  0.19867867    -0.38300
C2053       C  0.63886182  0.45379754  0.15947509    -0.05000
C2054       C  0.66718804  0.99075597  0.17223870    -0.02100
C2055       C  0.70351946  0.01449028  0.16374077     0.02900
C2056       C  0.71920888  0.00296013  0.14529225    -0.05000
C2057       C  0.69090653  0.46625322  0.13212635    -0.02100
C2058       C  0.65507183  0.44176800  0.14139010     0.02900
C2059       C  0.65362211  0.00331635  0.19219561     0.37500
C2060       C  0.70761367  0.45331125  0.11442299     0.37500
C2061       C  0.63542353  0.40421243  0.13205179     0.35900
C2062       C  0.72449066  0.05141737  0.17402187     0.35900
N2063       N  0.61999025  0.37427576  0.12456490    -0.38900
N2064       N  0.74080606  0.08069959  0.18240071    -0.38900
N2065       N  0.72095036  0.44308858  0.10025279    -0.38300
N2066       N  0.64307509  0.01367469  0.20803679    -0.38300
C2067       C  0.59051820  0.45637934  0.26420398    -0.05000
C2068       C  0.62957793  0.47693957  0.26351215    -0.02100
C2069       C  0.64610265  0.00394957  0.28430928     0.02900
C2070       C  0.62625399  0.01621091  0.29913816    -0.05000
C2071       C  0.58744429  0.00057396  0.29530980    -0.02100
C2072       C  0.56885655  0.97214634  0.27822546     0.02900
C2073       C  0.64932921  0.46927347  0.24487207     0.37500
C2074       C  0.56623888  0.01414653  0.30841232     0.37500
C2075       C  0.52883131  0.95455468  0.27602495     0.35900
C2076       C  0.68576768  0.01925973  0.28705895     0.35900
N2077       N  0.49687445  0.94044417  0.27472538    -0.38900
N2078       N  0.71741755  0.03123891  0.28911744    -0.38900
N2079       N  0.54922033  0.02491077  0.31876934    -0.38300
N2080       N  0.66499541  0.46307633  0.22998154    -0.38300
C2081       C  0.84168615  0.37533362  0.36632147    -0.05000
C2082       C  0.88076480  0.38908794  0.36564465    -0.02100
C2083       C  0.89849245  0.37977522  0.38392190     0.02900
C2084       C  0.87859049  0.35931179  0.40443670    -0.05000
C2085       C  0.83984564  0.34510616  0.40519834    -0.02100
C2086       C  0.82152270  0.35303500  0.38649991     0.02900
C2087       C  0.90377759  0.41333137  0.34634703     0.37500
C2088       C  0.81811503  0.31915089  0.42414956     0.37500
C2089       C  0.78164951  0.33745641  0.38836777     0.35900
C2090       C  0.93726493  0.39030699  0.38086316     0.35900
N2091       N  0.74984204  0.32487642  0.39003611    -0.38900
N2092       N  0.96790869  0.39813180  0.37786730    -0.38900
N2093       N  0.80068835  0.29786381  0.43894939    -0.38300
N2094       N  0.91325654  0.90564312  0.32517163    -0.38300
C2095       C  0.81526293  0.46410247  0.23690060    -0.05000
C2096       C  0.84499390  0.00158858  0.24301014    -0.02100
C2097       C  0.85430977  0.02810072  0.22441418     0.02900
C2098       C  0.83925786  0.01685050  0.20136081    -0.05000
C2099       C  0.81304790  0.97920274  0.19724289    -0.02100
C2100       C  0.79815662  0.45283523  0.21405030     0.02900
C2101       C  0.86339655  0.01405533  0.26600238     0.37500
C2102       C  0.78597308  0.46776635  0.17302400     0.37500
C2103       C  0.77391950  0.41388295  0.20864589     0.35900
C2104       C  0.87976016  0.06708424  0.22899886     0.35900
N2105       N  0.75495100  0.38291860  0.20388309    -0.38900
N2106       N  0.89975567  0.09815045  0.23294385    -0.38900
N2107       N  0.77097107  0.45844297  0.15475788    -0.38300
N2108       N  0.87829576  0.02417552  0.28424682    -0.38300
C2109       C  0.88681886  0.38441710  0.26055701    -0.05000
C2110       C  0.90004161  0.40149335  0.23794898    -0.02100
C2111       C  0.92861853  0.39853277  0.22627418     0.02900
C2112       C  0.94518626  0.37977731  0.23763053    -0.05000
C2113       C  0.93197991  0.36302621  0.26052422    -0.02100
C2114       C  0.90240181  0.36479907  0.27166004     0.02900
C2115       C  0.88373477  0.42141680  0.22630138     0.37500
C2116       C  0.41618798  0.31608598  0.25301793     0.37500
C2117       C  0.88805223  0.34667833  0.29470971     0.35900
C2118       C  0.93971716  0.41340377  0.20212268     0.35900
N2119       N  0.87640694  0.33218327  0.31302635    -0.38900
N2120       N  0.94829599  0.42502453  0.18280527    -0.38900
N2121       N  0.41665283  0.28834545  0.25329336    -0.38300
N2122       N  0.87133246  0.43756716  0.21662429    -0.38300
C2123       C  0.61212473  0.33410730  0.24008391    -0.05000
C2124       C  0.61615086  0.34019707  0.26532820    -0.02100
C2125       C  0.64411716  0.33734131  0.27789228     0.02900
C2126       C  0.67007082  0.33139755  0.26515958    -0.05000
C2127       C  0.66359364  0.32125894  0.24063233    -0.02100
C2128       C  0.63472018  0.32255173  0.22817124     0.02900
C2129       C  0.59339148  0.35167577  0.27862245     0.37500
C2130       C  0.68599849  0.30837447  0.22831536     0.37500
C2131       C  0.62791549  0.31127473  0.20320462     0.35900
C2132       C  0.64674683  0.34186347  0.30380823     0.35900
N2133       N  0.62232444  0.30215478  0.18332799    -0.38900
N2134       N  0.64860842  0.34531456  0.32446309    -0.38900
N2135       N  0.70372778  0.29793711  0.21850223    -0.38300
N2136       N  0.57600329  0.36096666  0.28995427    -0.38300
C2137       C  0.70175549  0.17702940  0.32115934    -0.05000
C2138       C  0.68371473  0.19708138  0.32757026    -0.02100
C2139       C  0.69742572  0.23368197  0.31914538     0.02900
C2140       C  0.72916899  0.25054605  0.30409926    -0.05000
C2141       C  0.74473818  0.22932450  0.29554306    -0.02100
C2142       C  0.73115712  0.19263259  0.30408167     0.02900
C2143       C  0.65225423  0.18117501  0.34389243     0.37500
C2144       C  0.77578714  0.24583315  0.27889890     0.37500
C2145       C  0.74778250  0.17116149  0.29539728     0.35900
C2146       C  0.67896099  0.25415045  0.32645038     0.35900
N2147       N  0.76116704  0.15412524  0.28851560    -0.38900
N2148       N  0.66385799  0.26995018  0.33252943    -0.38900
N2149       N  0.80044908  0.25908256  0.26553703    -0.38300
N2150       N  0.62701785  0.16889368  0.35678780    -0.38300
C2151       C  0.72808246  0.99987107  0.36101710    -0.05000
C2152       C  0.70817048  0.97398672  0.34290995    -0.02100
C2153       C  0.72236671  0.45052457  0.33129197     0.02900
C2154       C  0.75476898  0.45131300  0.33996041    -0.05000
C2155       C  0.77383508  0.97885292  0.36060186    -0.02100
C2156       C  0.76074235  0.00190404  0.37018079     0.02900
C2157       C  0.67115751  0.96643561  0.33656356     0.37500
C2158       C  0.80594170  0.97909081  0.37107072     0.37500
C2159       C  0.78150986  0.02839702  0.38877845     0.35900
C2160       C  0.70760650  0.43482510  0.30794431     0.35900
N2161       N  0.79840827  0.04952696  0.40358040    -0.38900
N2162       N  0.69663657  0.42371904  0.28893046    -0.38900
N2163       N  0.83153083  0.97914892  0.37938582    -0.38300
N2164       N  0.64123239  0.95965427  0.33207891    -0.38300
C2165       C  0.83685792  0.51101377  0.79767058    -0.05000
C2166       C  0.84454611  0.04875201  0.79884453    -0.02100
C2167       C  0.86307143  0.07456463  0.78011443     0.02900
C2168       C  0.87446094  0.06357988  0.75908755    -0.05000
C2169       C  0.86642015  0.52572228  0.75789552    -0.02100
C2170       C  0.84637818  0.49956212  0.77630048     0.02900
C2171       C  0.83273024  0.06018344  0.82015205     0.37500
C2172       C  0.88020781  0.51399336  0.73768913     0.37500
C2173       C  0.83535128  0.46071892  0.77314846     0.35900
C2174       C  0.86933830  0.11213442  0.78257799     0.35900
N2175       N  0.82611862  0.42968569  0.77022107    -0.38900
N2176       N  0.87387807  0.14184392  0.78510927    -0.38900
N2177       N  0.89178324  0.50462963  0.72188305    -0.38300
N2178       N  0.82290364  0.06917317  0.83701039    -0.38300
C2179       C  0.72411636  0.02112623  0.85918552    -0.05000
C2180       C  0.72774120  0.05036569  0.87403152    -0.02100
C2181       C  0.71218088  0.07267468  0.86691786     0.02900
C2182       C  0.69349821  0.06657264  0.84459747    -0.05000
C2183       C  0.68610219  0.03457717  0.83134558    -0.02100
C2184       C  0.70093596  0.01195650  0.83863614     0.02900
C2185       C  0.74813102  0.05829082  0.89636580     0.37500
C2186       C  0.66412650  0.02489494  0.80960204     0.37500
C2187       C  0.68667181  0.47445768  0.82975778     0.35900
C2188       C  0.71481490  0.10142768  0.88296009     0.35900
N2189       N  0.67642965  0.44656029  0.81983796    -0.38900
N2190       N  0.71669135  0.12415597  0.89585471    -0.38900
N2191       N  0.64658598  0.01644811  0.79227398    -0.38300
N2192       N  0.76458608  0.56362864  0.91654395    -0.38300
C2193       C  0.76049157  0.34908145  0.82737527    -0.05000
C2194       C  0.78525985  0.34265497  0.81318924    -0.02100
C2195       C  0.77290490  0.30784287  0.80214799     0.02900
C2196       C  0.73653051  0.27863983  0.80604329    -0.05000
C2197       C  0.71146742  0.28482018  0.81954150    -0.02100
C2198       C  0.72316478  0.31963452  0.83024058     0.02900
C2199       C  0.82359366  0.37138145  0.80990952     0.37500
C2200       C  0.67356411  0.25482653  0.82283670     0.37500
C2201       C  0.69653722  0.32390829  0.84495058     0.35900
C2202       C  0.79702271  0.30245800  0.78575512     0.35900
N2203       N  0.67491762  0.32690307  0.85648538    -0.38900
N2204       N  0.81596114  0.29862647  0.77213801    -0.35300
N2205       N  0.64332417  0.23102382  0.82528317    -0.38300
N2206       N  0.85433190  0.39403313  0.80745113    -0.38300
C2207       C  0.82466410  0.40714884  0.93044349    -0.05000
C2208       C  0.80819996  0.40406815  0.95345123    -0.02100
C2209       C  0.81292519  0.38355740  0.97213033     0.02900
C2210       C  0.83489763  0.36668617  0.96856927    -0.05000
C2211       C  0.85057619  0.36868409  0.94577862    -0.02100
C2212       C  0.84550787  0.38864251  0.92678939     0.02900
C2213       C  0.78513810  0.42073174  0.95810547     0.37500
C2214       C  0.87271842  0.35079954  0.94204775     0.37500
C2215       C  0.86276743  0.39062627  0.90374010     0.35900
C2216       C  0.79398213  0.37861159  0.99498261     0.35900
N2217       N  0.87647188  0.39203107  0.88534698    -0.38900
N2218       N  0.77884722  0.37452056  0.01317484    -0.38900
N2219       N  0.89028623  0.33642566  0.93911859    -0.38300
N2220       N  0.76672820  0.43390923  0.96206099    -0.38300
C2221       C  0.92825969  0.12657556  0.07181268    -0.05000
C2222       C  0.93154592  0.15999391  0.06301432    -0.02100
C2223       C  0.45893496  0.18089357  0.04841509     0.02900
C2224       C  0.47991906  0.16573012  0.03782261    -0.05000
C2225       C  0.97823295  0.13440588  0.04469670    -0.02100
C2226       C  0.95184771  0.11404667  0.06281284     0.02900
C2227       C  0.90642664  0.17213204  0.07197587     0.37500
C2228       C  0.49531147  0.11408377  0.03796203     0.37500
C2229       C  0.94875274  0.07979025  0.07219212     0.35900
C2230       C  0.46658350  0.21824263  0.04263890     0.35900
N2231       N  0.94633021  0.05250226  0.07962788    -0.38900
N2232       N  0.47284502  0.24823063  0.03845560    -0.38900
N2233       N  0.51276936  0.10092859  0.03148895    -0.38300
N2234       N  0.88585951  0.18114506  0.07909134    -0.38300
C2235       C  0.59637976  0.18627398  0.90695390    -0.05000
C2236       C  0.57725932  0.16780708  0.88605750    -0.02100
C2237       C  0.59563423  0.16003981  0.86748214     0.02900
C2238       C  0.63383096  0.17068450  0.86942642    -0.05000
C2239       C  0.65303090  0.18961849  0.89049570    -0.02100
C2240       C  0.63422212  0.19687967  0.90923446     0.02900
C2241       C  0.53802316  0.15591286  0.88387663     0.37500
C2242       C  0.69195600  0.20101232  0.89334270     0.37500
C2243       C  0.65383380  0.21515472  0.93094520     0.35900
C2244       C  0.57464554  0.14189278  0.84615796     0.35900
N2245       N  0.66973375  0.22955616  0.94825192    -0.38900
N2246       N  0.55665300  0.12731322  0.82956957    -0.38900
N2247       N  0.72307052  0.21034100  0.89567838    -0.38300
N2248       N  0.50676763  0.14631360  0.88211185    -0.38300
C2249       C  0.88986135  0.05717832  0.90246582    -0.05000
C2250       C  0.89061927  0.09163488  0.90502011    -0.02100
C2251       C  0.91880659  0.12065249  0.91848305     0.02900
C2252       C  0.94712792  0.11608738  0.92940277    -0.05000
C2253       C  0.94640509  0.08176853  0.92706911    -0.02100
C2254       C  0.91786429  0.05242202  0.91395245     0.02900
C2255       C  0.86279764  0.09800897  0.89360754     0.37500
C2256       C  0.47154916  0.07068398  0.94438159     0.37500
C2257       C  0.91710075  0.01698842  0.91312481     0.35900
C2258       C  0.91820390  0.15526645  0.92120535     0.35900
N2259       N  0.91675075  0.98885692  0.91258769    -0.38900
N2260       N  0.91737528  0.18269124  0.92312798    -0.38900
N2261       N  0.49298214  0.06545205  0.95441689    -0.38300
N2262       N  0.83869286  0.60032357  0.88769230    -0.38300
C2263       C  0.68107816  0.37721886  0.90507478    -0.05000
C2264       C  0.68715067  0.35443321  0.92132436    -0.02100
C2265       C  0.65937913  0.33131989  0.93775218     0.02900
C2266       C  0.62306096  0.32576081  0.93542750    -0.05000
C2267       C  0.61591627  0.34545673  0.91701659    -0.02100
C2268       C  0.64527372  0.37263537  0.90298016     0.02900
C2269       C  0.72051663  0.35155727  0.91939153     0.37500
C2270       C  0.57844519  0.33735014  0.91164307     0.37500
C2271       C  0.63858149  0.39605509  0.88660972     0.35900
C2272       C  0.66833103  0.31235603  0.95635067     0.35900
N2273       N  0.63319548  0.41482998  0.87367211    -0.38900
N2274       N  0.67595720  0.29800357  0.97142403    -0.38900
N2275       N  0.54868748  0.33047641  0.90653630    -0.38300
N2276       N  0.74608450  0.34755714  0.91736045    -0.38300
C2277       C  0.96685639  0.26858588  0.97067455    -0.05000
C2278       C  0.97600831  0.30627664  0.97158358    -0.02100
C2279       C  0.95096178  0.31630809  0.98156446     0.02900
C2280       C  0.91854893  0.28923879  0.99367448    -0.05000
C2281       C  0.91136052  0.25185702  0.99434332    -0.02100
C2282       C  0.93377670  0.24126009  0.98136457     0.02900
C2283       C  0.01256523  0.33533444  0.96419138     0.37500
C2284       C  0.88483123  0.22513265  0.01115765     0.37500
C2285       C  0.92529443  0.20267208  0.98175429     0.35900
C2286       C  0.96002385  0.35495442  0.98005320     0.35900
N2287       N  0.91870843  0.17203320  0.98220209    -0.38900
N2288       N  0.96752494  0.38583112  0.97878718    -0.38900
N2289       N  0.86523944  0.20377711  0.02520204    -0.38300
N2290       N  0.53741892  0.35206266  0.95459243    -0.38300
C2291       C  0.64192842  0.23386881  0.01553234    -0.05000
C2292       C  0.65931029  0.26482188  0.03151469    -0.02100
C2293       C  0.69569617  0.27718394  0.04008817     0.02900
C2294       C  0.71513181  0.25897897  0.03307031    -0.05000
C2295       C  0.69666213  0.22607495  0.01942523    -0.02100
C2296       C  0.66032184  0.21327643  0.01098212     0.02900
C2297       C  0.64060363  0.28482843  0.03917649     0.37500
C2298       C  0.71528105  0.20527691  0.01356195     0.37500
C2299       C  0.64254912  0.17889750  0.99742691     0.35900
C2300       C  0.71392345  0.30985101  0.05516712     0.35900
N2301       N  0.62869078  0.15151612  0.98661550    -0.38900
N2302       N  0.72850577  0.33585229  0.06723042    -0.38900
N2303       N  0.72941753  0.18817892  0.00845973    -0.38300
N2304       N  0.62586516  0.30091144  0.04541829    -0.38300
O2305       O  0.49564155  0.64542172  0.96070960    -0.81400
C2306       C  0.59180263  0.79921009  0.94751747     0.97900
O2307       O  0.56205584  0.77977288  0.93636480    -0.70600
O2308       O  0.56620717  0.72198435  0.92073369    -0.74200
Al2309     Al  0.52899649  0.72796089  0.93731906     1.49000
C2310       C  0.57635964  0.69808075  0.92424876     0.93200
O2311       O  0.59281989  0.70410610  0.98587068    -0.80400
O2312       O  0.51720724  0.72268790  0.01058712    -0.73900
Al2313     Al  0.54404889  0.67883058  0.97292644     1.90100
O2314       O  0.59101104  0.74805814  0.00540529    -0.73000
O2315       O  0.52363839  0.77340025  0.97845544    -0.72900
O2316       O  0.59522948  0.79104947  0.96898032    -0.78500
O2317       O  0.48974915  0.73400793  0.95068994    -0.76700
O2318       O  0.54271594  0.72034201  0.96631598    -1.12900
O2319       O  0.99250525  0.67491840  0.92965400    -0.72000
C2320       C  0.97903561  0.64457713  0.94062804     0.98700
C2321       C  0.60671545  0.72950287  0.00124663     0.95100
Al2322     Al  0.55559821  0.75564103  0.98877567     1.55600
O2323       O  0.56728964  0.67848480  0.94318782    -0.76700
C2324       C  0.49435412  0.75780873  0.96639759     0.99200
C2325       C  0.50853201  0.68960172  0.01630073     0.94100
O2326       O  0.52072222  0.67236700  0.00375789    -0.82000
O2327       O  0.86248039  0.99988166  0.88023056    -0.81400
C2328       C  0.71415741  0.91074650  0.89144255     0.97900
O2329       O  0.74277502  0.92911346  0.90375031    -0.70600
O2330       O  0.81209707  0.95641482  0.91415719    -0.74200
Al2331     Al  0.78389100  0.97428872  0.89613587     1.49000
C2332       C  0.82003065  0.93122596  0.90927887     0.93200
O2333       O  0.80742849  0.91175880  0.84127324    -0.80400
O2334       O  0.78618470  0.96328592  0.81872208    -0.73900
Al2335     Al  0.83033993  0.95623187  0.86131976     1.90100
O2336       O  0.74907218  0.89572104  0.84273762    -0.73000
O2337       O  0.75294759  0.98722241  0.84642234    -0.72900
O2338       O  0.71332005  0.91826800  0.86939627    -0.78500
O2339       O  0.75281883  0.99479659  0.88499225    -0.76700
O2340       O  0.78919200  0.95766731  0.86774588    -1.12900
O2341       O  0.82517028  0.51871705  0.89270507    -0.72000
C2342       C  0.85712785  0.52225718  0.89076605     0.98700
C2343       C  0.77370694  0.88761542  0.83796169     0.95100
Al2344     Al  0.75339216  0.94241963  0.84612516     1.55600
O2345       O  0.82231837  0.92371236  0.88760239    -0.76700
C2346       C  0.74464594  0.00036766  0.86403293     0.99200
C2347       C  0.82066103  0.98609246  0.81768133     0.94100
O2348       O  0.84185268  0.98880067  0.83471435    -0.82000
O2349       O  0.85798472  0.91370713  0.28493330    -0.81400
C2350       C  0.70702045  0.84176836  0.27905354     0.97900
O2351       O  0.73552803  0.85547240  0.26606607    -0.70600
O2352       O  0.80342834  0.90198581  0.25335007    -0.74200
Al2353     Al  0.77956835  0.85596120  0.27227242     1.49000
C2354       C  0.81084677  0.93493526  0.25837031     0.93200
O2355       O  0.80191786  0.94133885  0.32688218    -0.80400
O2356       O  0.78700475  0.87262261  0.34920591    -0.73900
Al2357     Al  0.82507937  0.92220135  0.30537772     1.90100
O2358       O  0.74379172  0.89780953  0.32588391    -0.73000
O2359       O  0.75492277  0.81388746  0.32344432    -0.72900
O2360       O  0.70914169  0.83638571  0.30135076    -0.78500
O2361       O  0.75335516  0.80482181  0.28481116    -0.76700
O2362       O  0.78521419  0.87830930  0.30029492    -1.12900
O2363       O  0.82386540  0.85479877  0.27572175    -0.72000
C2364       C  0.85487552  0.88409483  0.27617792     0.98700
C2365       C  0.76802094  0.93056935  0.33056896     0.95100
Al2366     Al  0.75143789  0.85703769  0.32314502     1.55600
O2367       O  0.81268393  0.94447927  0.28003107    -0.76700
C2368       C  0.74774018  0.79222130  0.30615182     0.99200
C2369       C  0.82176488  0.88475208  0.34878405     0.94100
O2370       O  0.84045101  0.90326207  0.33084922    -0.82000
O2371       O  0.48962733  0.89665836  0.20471098    -0.81400
C2372       C  0.58803188  0.84348339  0.22648741     0.97900
O2373       O  0.55752268  0.83412024  0.23655460    -0.70600
O2374       O  0.56253183  0.89784367  0.24901980    -0.74200
Al2375     Al  0.52545323  0.85409690  0.23355727     1.49000
C2376       C  0.56887885  0.93068995  0.24547968     0.93200
O2377       O  0.59074458  0.93989928  0.18604290    -0.80400
O2378       O  0.51754282  0.84448971  0.16032075    -0.73900
Al2379     Al  0.54028490  0.91523015  0.19604750     1.90100
O2380       O  0.59224583  0.89453682  0.16765699    -0.73000
O2381       O  0.52208033  0.80170606  0.19430324    -0.72900
O2382       O  0.59364228  0.85560820  0.20503207    -0.78500
O2383       O  0.48670034  0.80859861  0.22080392    -0.76700
O2384       O  0.54032843  0.87366801  0.20433560    -1.12900
O2385       O  0.99046561  0.86509342  0.23927101    -0.72000
C2386       C  0.97355028  0.87678036  0.22660124     0.98700
C2387       C  0.60720575  0.92864515  0.17224843     0.95100
Al2388     Al  0.55518952  0.85102533  0.18352102     1.55600
O2389       O  0.55774594  0.93924377  0.22660382    -0.76700
C2390       C  0.49225697  0.78866438  0.20608825     0.99200
C2391       C  0.50894382  0.86856718  0.15343220     0.94100
O2392       O  0.52244528  0.89917143  0.16437246    -0.82000
O2393       O  0.87228591  0.53477273  0.11731479    -0.81400
C2394       C  0.79959918  0.61539095  0.10746317     0.97900
O2395       O  0.81424436  0.60062488  0.09529922    -0.70600
O2396       O  0.86213123  0.58015934  0.08424473    -0.74200
Al2397     Al  0.81562715  0.55738035  0.10213010     1.49000
C2398       C  0.89508075  0.60399339  0.08996536     0.93200
O2399       O  0.89824583  0.61819354  0.15845236    -0.80400
O2400       O  0.82978007  0.56859209  0.17968372    -0.73900
Al2401     Al  0.87982477  0.57592979  0.13707609     1.90100
O2402       O  0.85696155  0.63583221  0.15522077    -0.73000
O2403       O  0.77200191  0.54272889  0.15283997    -0.72900
O2404       O  0.79545630  0.60961104  0.12991569    -0.78500
O2405       O  0.76451718  0.53216705  0.11421367    -0.76700
O2406       O  0.83690846  0.57387945  0.13046528    -1.12900
O2407       O  0.81488696  0.51160892  0.10517871    -0.72000
C2408       C  0.84388323  0.50932217  0.10725702     0.98700
C2409       C  0.88860180  0.64248711  0.16184011     0.95100
Al2410     Al  0.81549573  0.58815693  0.15251088     1.55600
O2411       O  0.90487266  0.61002007  0.11170945    -0.76700
C2412       C  0.75133991  0.52669103  0.13538360     0.99200
C2413       C  0.83982096  0.54419566  0.17980640     0.94100
O2414       O  0.85778696  0.54134358  0.16243035    -0.82000
O2415       O  0.88015008  0.89073322  0.04993336    -0.81400
C2416       C  0.80399703  0.73755875  0.05732504     0.97900
O2417       O  0.82063925  0.76608951  0.06996467    -0.70600
O2418       O  0.86980427  0.83275139  0.08193947    -0.74200
Al2419     Al  0.82295419  0.81153717  0.06483590     1.49000
C2420       C  0.90239088  0.84119933  0.07539861     0.93200
O2421       O  0.90334395  0.83315026  0.00708740    -0.80400
O2422       O  0.83496909  0.81787304  0.98676254    -0.73900
Al2423     Al  0.88644503  0.85731003  0.02918920     1.90100
O2424       O  0.86039127  0.77487192  0.00920799    -0.73000
O2425       O  0.77714333  0.78697448  0.01470534    -0.72900
O2426       O  0.79913606  0.74062635  0.03517243    -0.78500
O2427       O  0.77158585  0.78783232  0.05383389    -0.76700
O2428       O  0.84306684  0.81721827  0.03586875    -1.12900
O2429       O  0.82327741  0.85706714  0.06342760    -0.72000
C2430       C  0.85228491  0.88795843  0.06095644     0.98700
C2431       C  0.89275202  0.79922591  0.00337420     0.95100
Al2432     Al  0.82002868  0.78299041  0.01336080     1.55600
O2433       O  0.91161459  0.84633902  0.05350881    -0.76700
C2434       C  0.75741581  0.78164488  0.03301783     0.99200
C2435       C  0.84696445  0.85258691  0.98695283     0.94100
O2436       O  0.86505129  0.87211215  0.00457837    -0.82000
O2437       O  0.61238380  0.63602959  0.79632181    -0.81400
C2438       C  0.76255878  0.67644938  0.78491845     0.97900
O2439       O  0.74556214  0.68896346  0.77266088    -0.70600
O2440       O  0.68547359  0.62984710  0.75681762    -0.74200
Al2441     Al  0.69428792  0.67462299  0.77228369     1.49000
C2442       C  0.65705617  0.59793422  0.75877264     0.93200
O2443       O  0.66188958  0.58593201  0.81969581    -0.80400
O2444       O  0.68662922  0.68353899  0.84431888    -0.73900
Al2445     Al  0.64040402  0.61404792  0.80771535     1.90100
O2446       O  0.70573088  0.62852885  0.84124528    -0.73000
O2447       O  0.74038954  0.72405458  0.81345901    -0.72900
O2448       O  0.75262401  0.66487769  0.80617924    -0.78500
O2449       O  0.70325225  0.72155229  0.78470359    -0.76700
O2450       O  0.68409551  0.65383952  0.80141992    -1.12900
O2451       O  0.64584826  0.66430000  0.76476301    -0.72000
C2452       C  0.61565316  0.65083594  0.77599431     0.98700
C2453       C  0.68669938  0.59495791  0.83537075     0.95100
Al2454     Al  0.71840223  0.67354728  0.82439368     1.55600
O2455       O  0.63654636  0.59048543  0.77719163    -0.76700
C2456       C  0.72685251  0.73961259  0.80070731     0.99200
C2457       C  0.65319445  0.66121469  0.85002447     0.94100
O2458       O  0.63548578  0.63036691  0.83926835    -0.82000
O2459       O  0.96663141  0.61830411  0.71260527    -0.81400
C2460       C  0.87502539  0.67624623  0.72531696     0.97900
O2461       O  0.89709968  0.67007655  0.73709060    -0.70600
O2462       O  0.92131509  0.62463191  0.74605161    -0.74200
Al2463     Al  0.94082598  0.67167188  0.72841284     1.49000
C2464       C  0.89688492  0.59156069  0.74064622     0.93200
O2465       O  0.88110042  0.58646188  0.67179920    -0.80400
O2466       O  0.93030382  0.66225276  0.65172095    -0.73900
Al2467     Al  0.92380552  0.60826955  0.69304139     1.90100
O2468       O  0.86035161  0.62531402  0.67412244    -0.73000
O2469       O  0.94599065  0.71757121  0.67998307    -0.72900
O2470       O  0.87760964  0.68040413  0.70269995    -0.78500
O2471       O  0.96242530  0.72290223  0.71748692    -0.76700
O2472       O  0.92319480  0.65014606  0.70006630    -1.12900
O2473       O  0.98793536  0.67601604  0.72318754    -0.72000
C2474       C  0.99188246  0.64785205  0.72194081     0.98700
C2475       C  0.85567064  0.59424090  0.66803343     0.95100
Al2476     Al  0.90515456  0.66964255  0.67896105     1.55600
O2477       O  0.89075760  0.58200464  0.71883002    -0.76700
C2478       C  0.96393373  0.73759387  0.69725823     0.99200
C2479       C  0.95374296  0.65090073  0.65042690     0.94100
O2480       O  0.95668992  0.63152717  0.66699944    -0.82000
O2481       O  0.96459402  0.89285918  0.45406299    -0.81400
C2482       C  0.87499096  0.74399976  0.44188353     0.97900
O2483       O  0.89725285  0.77211533  0.43015478    -0.70600
O2484       O  0.92023919  0.84097480  0.42129248    -0.74200
Al2485     Al  0.94027978  0.81426426  0.43860260     1.49000
C2486       C  0.89653605  0.85086365  0.42658239     0.93200
O2487       O  0.88155007  0.84085871  0.49587688    -0.80400
O2488       O  0.92981008  0.81449081  0.51528794    -0.73900
Al2489     Al  0.92305835  0.86101818  0.47390344     1.90100
O2490       O  0.86005513  0.78150825  0.49265425    -0.73000
O2491       O  0.94615407  0.77524620  0.48714922    -0.72900
O2492       O  0.87767785  0.74324062  0.46457951    -0.78500
O2493       O  0.96252569  0.78534681  0.44958318    -0.76700
O2494       O  0.92261846  0.81861163  0.46689982    -1.12900
O2495       O  0.98649011  0.85684188  0.44343325    -0.72000
C2496       C  0.98967121  0.88861216  0.44429560     0.98700
C2497       C  0.85607970  0.80800693  0.49962102     0.95100
Al2498     Al  0.90488591  0.78171153  0.48813262     1.55600
O2499       O  0.88977346  0.85420586  0.44838047    -0.76700
C2500       C  0.96432568  0.77288946  0.46996749     0.99200
C2501       C  0.95359099  0.84904153  0.51608440     0.94100
O2502       O  0.95655945  0.87092372  0.49926159    -0.82000
O2503       O  0.60923612  0.52211967  0.37206206    -0.81400
C2504       C  0.76066898  0.61979858  0.38743379     0.97900
O2505       O  0.74099373  0.58978306  0.39846709    -0.70600
O2506       O  0.68472764  0.59638441  0.41402404    -0.74200
Al2507     Al  0.68920869  0.55791468  0.39801719     1.49000
C2508       C  0.65793681  0.60261955  0.41188086     0.93200
O2509       O  0.66589042  0.62321695  0.35287724    -0.80400
O2510       O  0.68326351  0.54684442  0.32508712    -0.73900
Al2511     Al  0.64024926  0.57266437  0.36281630     1.90100
O2512       O  0.70892537  0.62188471  0.33141507    -0.73000
O2513       O  0.73287531  0.55124870  0.35617934    -0.72900
O2514       O  0.75221289  0.62347110  0.36616649    -0.78500
O2515       O  0.69432218  0.51800567  0.38497428    -0.76700
O2516       O  0.68176758  0.57170619  0.36909579    -1.12900
O2517       O  0.63941660  0.52309729  0.40445430    -0.72000
C2518       C  0.61076008  0.50790164  0.39178510     0.98700
C2519       C  0.69186589  0.63853252  0.33775948     0.95100
Al2520     Al  0.71649637  0.58480447  0.34652770     1.55600
O2521       O  0.63643304  0.59051867  0.39400916    -0.76700
C2522       C  0.71750369  0.52217130  0.36883431     0.99200
C2523       C  0.65098530  0.53977366  0.31909644     0.94100
O2524       O  0.63537128  0.55478209  0.33042938    -0.82000
O2525       O  0.58736953  0.99656935  0.61998454    -0.81400
C2526       C  0.64725614  0.90607430  0.61131751     0.97900
O2527       O  0.63879167  0.92560365  0.59852590    -0.70600
O2528       O  0.59342661  0.94874630  0.58791820    -0.74200
Al2529     Al  0.64047271  0.96983849  0.60490129     1.49000
C2530       C  0.56035958  0.92544472  0.59404941     0.93200
O2531       O  0.55736991  0.91381822  0.66327329    -0.80400
O2532       O  0.63193660  0.96512997  0.68220739    -0.73900
Al2533     Al  0.57792768  0.95528211  0.64073463     1.90100
O2534       O  0.59704804  0.89394663  0.66183969    -0.73000
O2535       O  0.68720286  0.98206204  0.65365624    -0.72900
O2536       O  0.65332303  0.91180964  0.63360232    -0.78500
O2537       O  0.69183235  0.99302894  0.61508597    -0.76700
O2538       O  0.61982331  0.95478378  0.63389170    -1.12900
O2539       O  0.64526527  0.51570832  0.60721480    -0.72000
C2540       C  0.61815325  0.52118084  0.60876162     0.98700
C2541       C  0.56564105  0.88879855  0.66766959     0.95100
Al2542     Al  0.64055605  0.93953468  0.65594663     1.55600
O2543       O  0.55118441  0.92051990  0.61602684    -0.76700
C2544       C  0.70665138  0.99795696  0.63552898     0.99200
C2545       C  0.62093281  0.98886100  0.68222629     0.94100
O2546       O  0.60133081  0.99031981  0.66541232    -0.82000
O2547       O  0.59234029  0.64081340  0.55095295    -0.81400
C2548       C  0.64668490  0.79069333  0.55535222     0.97900
O2549       O  0.63843012  0.76353986  0.56893182    -0.70600
O2550       O  0.59621497  0.69558236  0.58172162    -0.74200
Al2551     Al  0.64243318  0.72167040  0.56412720     1.49000
C2552       C  0.56271903  0.68362104  0.57577180     0.93200
O2553       O  0.55783152  0.68855140  0.50694373    -0.80400
O2554       O  0.63153583  0.71246912  0.48640396    -0.73900
Al2555     Al  0.58058103  0.67019511  0.52959781     1.90100
O2556       O  0.59586786  0.74833934  0.50675921    -0.73000
O2557       O  0.68736988  0.75298393  0.51398768    -0.72900
O2558       O  0.65305388  0.78972095  0.53318709    -0.78500
O2559       O  0.69301374  0.75030200  0.55290361    -0.76700
O2560       O  0.62126417  0.71345672  0.53525872    -1.12900
O2561       O  0.64863530  0.67961861  0.56308451    -0.72000
C2562       C  0.62172698  0.64717305  0.56160263     0.98700
C2563       C  0.56472567  0.72120894  0.50204772     0.95100
Al2564     Al  0.64030310  0.74790689  0.51206453     1.55600
O2565       O  0.55326620  0.67791528  0.55398274    -0.76700
C2566       C  0.70717120  0.75841097  0.53212058     0.99200
C2567       C  0.62198474  0.67814765  0.48713159     0.94100
O2568       O  0.60475902  0.65873105  0.50520783    -0.82000
C2569       C  0.62068552  0.55446052  0.59706749    -0.05000
C2570       C  0.62938290  0.56090290  0.57226655    -0.02100
C2571       C  0.63080309  0.59196150  0.56076175     0.02900
C2572       C  0.62340773  0.61650466  0.57391904    -0.05000
C2573       C  0.61584183  0.61078676  0.59882014    -0.02100
C2574       C  0.61417249  0.57959951  0.61033917     0.02900
C2575       C  0.63535373  0.53480721  0.55825529     0.37500
C2576       C  0.60967373  0.63687457  0.61267952     0.37500
C2577       C  0.60628821  0.57367307  0.63589224     0.35900
C2578       C  0.64014566  0.59893225  0.53542470     0.35900
N2579       N  0.59996967  0.56897588  0.65626300    -0.38900
N2580       N  0.64783364  0.60470950  0.51526745    -0.38900
N2581       N  0.60493013  0.65748992  0.62408423    -0.38300
N2582       N  0.64003331  0.51405226  0.54695922    -0.38300
C2583       C  0.64825134  0.87531640  0.59911801    -0.05000
C2584       C  0.68185673  0.88037529  0.58941558    -0.02100
C2585       C  0.68156025  0.85378064  0.57353584     0.02900
C2586       C  0.64751158  0.82313171  0.56655894    -0.05000
C2587       C  0.61383033  0.81909925  0.57548173    -0.02100
C2588       C  0.61424251  0.84464947  0.59216177     0.02900
C2589       C  0.71650056  0.91335860  0.59537344     0.37500
C2590       C  0.57870597  0.78822829  0.56767535     0.37500
C2591       C  0.57960694  0.83986142  0.60193324     0.35900
C2592       C  0.71623118  0.85735814  0.56503641     0.35900
N2593       N  0.55214902  0.83626219  0.60978504    -0.38900
N2594       N  0.74413314  0.86044835  0.55852001    -0.38900
N2595       N  0.55076702  0.76361989  0.56142407    -0.38300
N2596       N  0.74402555  0.93983629  0.60006124    -0.38300
C2597       C  0.64982492  0.62245864  0.43115733    -0.05000
C2598       C  0.61801857  0.60257755  0.44561788    -0.02100
C2599       C  0.60797043  0.62105615  0.46277041     0.02900
C2600       C  0.63092300  0.65979058  0.46684623    -0.05000
C2601       C  0.66345407  0.67962942  0.45252583    -0.02100
C2602       C  0.67254305  0.66104032  0.43463824     0.02900
C2603       C  0.59635193  0.56244598  0.44378086     0.37500
C2604       C  0.68838208  0.71892884  0.45644198     0.37500
C2605       C  0.70524714  0.68161418  0.41968709     0.35900
C2606       C  0.57327318  0.59970468  0.47579110     0.35900
N2607       N  0.73125893  0.69798210  0.40769228    -0.38900
N2608       N  0.54560527  0.58251037  0.48610663    -0.38900
N2609       N  0.70842778  0.75029519  0.45944427    -0.38300
N2610       N  0.57911993  0.53037674  0.44307762    -0.38300
C2611       C  0.97927007  0.86486314  0.53674787    -0.05000
C2612       C  0.01457318  0.86768697  0.53572417    -0.02100
C2613       C  0.54050978  0.88784232  0.55565287     0.02900
C2614       C  0.53197068  0.90433946  0.57511657    -0.05000
C2615       C  0.99771756  0.90197769  0.57350326    -0.02100
C2616       C  0.97093483  0.88205128  0.55568255     0.02900
C2617       C  0.52225829  0.84936797  0.51894092     0.37500
C2618       C  0.98911214  0.92109313  0.59205091     0.37500
C2619       C  0.93499767  0.88003119  0.55638724     0.35900
C2620       C  0.57723450  0.89206457  0.55324153     0.35900
N2621       N  0.90631384  0.87838106  0.55681881    -0.38900
N2622       N  0.60649350  0.89558146  0.55062807    -0.38900
N2623       N  0.98225720  0.93642069  0.60680399    -0.38300
N2624       N  0.52958483  0.83465416  0.50404671    -0.38300
C2625       C  0.52232381  0.92445847  0.43540848    -0.05000
C2626       C  0.01500697  0.94632952  0.41857295    -0.02100
C2627       C  0.54534433  0.97886544  0.40884848     0.02900
C2628       C  0.58102128  0.98182195  0.40804480    -0.05000
C2629       C  0.58699103  0.95616733  0.42194385    -0.02100
C2630       C  0.55785261  0.92791851  0.43547118     0.02900
C2631       C  0.98046639  0.94703756  0.42087499     0.37500
C2632       C  0.62299568  0.95824515  0.42288588     0.37500
C2633       C  0.56508579  0.90331087  0.45038407     0.35900
C2634       C  0.53770927  0.50043378  0.39094656     0.35900
N2635       N  0.57132626  0.88408155  0.46228673    -0.38900
N2636       N  0.53294977  0.52284994  0.38172484    -0.38900
N2637       N  0.65155212  0.95965995  0.42387646    -0.38300
N2638       N  0.95312690  0.94796802  0.42272362    -0.38300
C2639       C  0.84597419  0.71185988  0.42807440    -0.05000
C2640       C  0.83435184  0.71775937  0.40521348    -0.02100
C2641       C  0.80920512  0.68761673  0.39116735     0.02900
C2642       C  0.79240879  0.65093741  0.40044102    -0.05000
C2643       C  0.80386635  0.64503954  0.42346198    -0.02100
C2644       C  0.83123864  0.67510429  0.43665827     0.02900
C2645       C  0.84729884  0.75489168  0.39567480     0.37500
C2646       C  0.78771925  0.60823367  0.43427229     0.37500
C2647       C  0.84496575  0.66759428  0.45875376     0.35900
C2648       C  0.80069603  0.69524128  0.36716645     0.35900
N2649       N  0.85577236  0.66106519  0.47621964    -0.38900
N2650       N  0.79444599  0.70169313  0.34803421    -0.38900
N2651       N  0.77476104  0.57925929  0.44337677    -0.38300
N2652       N  0.85698724  0.78377613  0.38712339    -0.38300
C2653       C  0.98783141  0.75529886  0.47469943    -0.05000
C2654       C  0.52183612  0.76623394  0.46334527    -0.02100
C2655       C  0.54571758  0.75287703  0.47095334     0.02900
C2656       C  0.03784435  0.73147653  0.49067997    -0.05000
C2657       C  0.00258852  0.71693014  0.50143073    -0.02100
C2658       C  0.97771189  0.72859725  0.49352402     0.02900
C2659       C  0.53247154  0.79139667  0.44295163     0.37500
C2660       C  0.99222147  0.69137393  0.52161340     0.37500
C2661       C  0.94163925  0.71282016  0.50517849     0.35900
C2662       C  0.58006519  0.76389525  0.45803352     0.35900
N2663       N  0.91321683  0.70026650  0.51485330    -0.38900
N2664       N  0.60739212  0.77243853  0.44771159    -0.38900
N2665       N  0.98291793  0.67094705  0.53771965    -0.38300
N2666       N  0.54086770  0.81117467  0.42650847    -0.38300
C2667       C  0.74762649  0.77517334  0.52826458    -0.05000
C2668       C  0.76638982  0.75636544  0.53575289    -0.02100
C2669       C  0.80273280  0.76828382  0.52741399     0.02900
C2670       C  0.82088370  0.79974942  0.51198049    -0.05000
C2671       C  0.80353793  0.82106329  0.50697591    -0.02100
C2672       C  0.76665747  0.80816822  0.51444499     0.02900
C2673       C  0.74754392  0.72341961  0.55082006     0.37500
C2674       C  0.82274266  0.85540452  0.49326157     0.37500
C2675       C  0.74788509  0.82840201  0.50723338     0.35900
C2676       C  0.82123589  0.74785320  0.53473707     0.35900
N2677       N  0.73290362  0.84444384  0.50135215    -0.38900
N2678       N  0.83581881  0.73139264  0.54055308    -0.38900
N2679       N  0.83798819  0.88288097  0.48240365    -0.38300
N2680       N  0.73258427  0.69720633  0.56288777    -0.38300
C2681       C  0.97918338  0.66097201  0.62945176    -0.05000
C2682       C  0.97141432  0.63551589  0.61064510    -0.02100
C2683       C  0.99815151  0.64288450  0.59247912     0.02900
C2684       C  0.53416746  0.67535462  0.59470716    -0.05000
C2685       C  0.54155547  0.70044781  0.61383638    -0.02100
C2686       C  0.01356509  0.69420367  0.62975488     0.02900
C2687       C  0.93597093  0.60141361  0.61026335     0.37500
C2688       C  0.57698313  0.73443901  0.61548893     0.37500
C2689       C  0.52236612  0.71882342  0.65098850     0.35900
C2690       C  0.99015641  0.61551986  0.57389590     0.35900
N2691       N  0.52917177  0.74039280  0.66602004    -0.38900
N2692       N  0.98378795  0.59374113  0.55902830    -0.38900
N2693       N  0.60514649  0.76148843  0.61746076    -0.38300
N2694       N  0.90762345  0.57426942  0.61006119    -0.38300
C2695       C  0.53848720  0.85259485  0.67937537    -0.05000
C2696       C  0.55065777  0.83530633  0.69641176    -0.02100
C2697       C  0.52632374  0.79872319  0.70483805     0.02900
C2698       C  0.98677674  0.77874238  0.69287906    -0.05000
C2699       C  0.97384340  0.79644887  0.67667011    -0.02100
C2700       C  0.99773430  0.83308886  0.66837963     0.02900
C2701       C  0.58825215  0.85525695  0.70555669     0.37500
C2702       C  0.93572312  0.77701603  0.66837236     0.37500
C2703       C  0.98477314  0.84914097  0.65018792     0.35900
C2704       C  0.53877194  0.78240570  0.72314013     0.35900
N2705       N  0.97409421  0.86155408  0.63563903    -0.38900
N2706       N  0.54856813  0.76986513  0.73816500    -0.38900
N2707       N  0.90534230  0.76158805  0.66174383    -0.38300
N2708       N  0.61824953  0.87112544  0.71282444    -0.38300
C2709       C  0.81956551  0.56710278  0.65665324    -0.05000
C2710       C  0.80015516  0.52960214  0.66428083    -0.02100
C2711       C  0.76380628  0.50556848  0.65607337     0.02900
C2712       C  0.74572291  0.51890383  0.64071700    -0.05000
C2713       C  0.76596731  0.55544285  0.63152198    -0.02100
C2714       C  0.80273494  0.57937627  0.63935866     0.02900
C2715       C  0.81629793  0.51592328  0.68179990     0.37500
C2716       C  0.74852360  0.56894948  0.61475817     0.37500
C2717       C  0.82322414  0.61673106  0.62951645     0.35900
C2718       C  0.74721538  0.96865439  0.66075496     0.35900
N2719       N  0.83955940  0.64649498  0.62159896    -0.38900
N2720       N  0.73245639  0.93757884  0.66625051    -0.38900
N2721       N  0.73454265  0.57962273  0.60135172    -0.38300
N2722       N  0.82841174  0.50427119  0.69586090    -0.38300
C2723       C  0.63146551  0.01606235  0.70205627    -0.05000
C2724       C  0.65734499  0.55166771  0.69849391    -0.02100
C2725       C  0.66722820  0.57837779  0.71692074     0.02900
C2726       C  0.64714326  0.56908243  0.73909975    -0.05000
C2727       C  0.61682924  0.03430803  0.74052666    -0.02100
C2728       C  0.60934456  0.00711152  0.72279426     0.02900
C2729       C  0.67679667  0.56210617  0.67558684     0.37500
C2730       C  0.59080027  0.02414215  0.76034332     0.37500
C2731       C  0.57825687  0.96968582  0.72561590     0.35900
C2732       C  0.69753273  0.61564923  0.71221290     0.35900
N2733       N  0.55366020  0.93974800  0.72777715    -0.38900
N2734       N  0.72170744  0.64528907  0.70824097    -0.38900
N2735       N  0.56966506  0.01537496  0.77599209    -0.38300
N2736       N  0.69192040  0.57036601  0.65721812    -0.38300
C2737       C  0.58341670  0.65025587  0.76389218    -0.05000
C2738       C  0.54820512  0.61781073  0.76463495    -0.02100
C2739       C  0.01871181  0.62076041  0.75097469     0.02900
C2740       C  0.52421378  0.64520587  0.73537924    -0.05000
C2741       C  0.55975437  0.67714612  0.73413148    -0.02100
C2742       C  0.58883406  0.68010222  0.74873966     0.02900
C2743       C  0.54218356  0.58590409  0.77901517     0.37500
C2744       C  0.56722819  0.70647881  0.71696495     0.37500
C2745       C  0.62428178  0.71434017  0.74835816     0.35900
C2746       C  0.98169347  0.59138435  0.75684392     0.35900
N2747       N  0.65251096  0.74163345  0.74807074    -0.38900
N2748       N  0.95286967  0.56756902  0.76257851    -0.38900
N2749       N  0.57410168  0.73001862  0.70317868    -0.38300
N2750       N  0.03652912  0.56546952  0.79069917    -0.38300
C2751       C  0.79326739  0.67449011  0.77296288    -0.05000
C2752       C  0.78520929  0.64295439  0.75908431    -0.02100
C2753       C  0.81116789  0.64444273  0.74212867     0.02900
C2754       C  0.84539326  0.67742316  0.73914633    -0.05000
C2755       C  0.85424189  0.70828875  0.75394937    -0.02100
C2756       C  0.82834861  0.70660431  0.77106520     0.02900
C2757       C  0.75071928  0.60855159  0.76285818     0.37500
C2758       C  0.89010725  0.74167082  0.75155211     0.37500
C2759       C  0.83840219  0.73693784  0.78766706     0.35900
C2760       C  0.80315252  0.61173799  0.72820278     0.35900
N2761       N  0.84683936  0.76070585  0.80136511    -0.38900
N2762       N  0.79683603  0.58567666  0.71712150    -0.38900
N2763       N  0.91870378  0.76825290  0.74944407    -0.38300
N2764       N  0.72362531  0.58073990  0.76604380    -0.38300
C2765       C  0.85446122  0.92062441  0.07282539    -0.05000
C2766       C  0.85523221  0.94970873  0.05919024    -0.02100
C2767       C  0.85342318  0.97886352  0.07086427     0.02900
C2768       C  0.85307113  0.98001259  0.09623579    -0.05000
C2769       C  0.85586377  0.95275985  0.10983287    -0.02100
C2770       C  0.85560452  0.92254612  0.09816876     0.02900
C2771       C  0.85872045  0.95017494  0.03325441     0.37500
C2772       C  0.85947680  0.95598402  0.13574210     0.37500
C2773       C  0.85770380  0.89408034  0.11229597     0.35900
C2774       C  0.84868890  0.50584327  0.05584016     0.35900
N2775       N  0.85951243  0.87167068  0.12380580    -0.38900
N2776       N  0.84912897  0.52876837  0.04362445    -0.38900
N2777       N  0.86297397  0.95854422  0.15637715    -0.38300
N2778       N  0.86233399  0.95146295  0.01260124    -0.38300
C2779       C  0.78865146  0.64042656  0.09470649    -0.05000
C2780       C  0.78602329  0.63960631  0.06920641    -0.02100
C2781       C  0.78734955  0.66980219  0.05652596     0.02900
C2782       C  0.79093584  0.70078417  0.06926561    -0.05000
C2783       C  0.78449219  0.69722300  0.09445053    -0.02100
C2784       C  0.78334517  0.66712909  0.10714506     0.02900
C2785       C  0.78151603  0.60762483  0.05576404     0.37500
C2786       C  0.77863668  0.72428753  0.10746081     0.37500
C2787       C  0.77699898  0.66435243  0.13287349     0.35900
C2788       C  0.78610574  0.66897435  0.03048992     0.35900
N2789       N  0.77196546  0.66283660  0.15340108    -0.38900
N2790       N  0.78539992  0.66791649  0.00971552    -0.38900
N2791       N  0.77386067  0.74570842  0.11789122    -0.38300
N2792       N  0.77780580  0.58219384  0.04495055    -0.38300
C2793       C  0.93073604  0.84672611  0.09371588    -0.05000
C2794       C  0.93213897  0.81610550  0.10375009    -0.02100
C2795       C  0.46139898  0.82597217  0.12184973     0.02900
C2796       C  0.48169001  0.86144847  0.13303615    -0.05000
C2797       C  0.98433625  0.88854249  0.11796722    -0.02100
C2798       C  0.95752787  0.88295145  0.10040152     0.02900
C2799       C  0.90487797  0.77894689  0.09644888     0.37500
C2800       C  0.01291841  0.92627839  0.12329306     0.37500
C2801       C  0.95690519  0.91461753  0.08955008     0.35900
C2802       C  0.46871470  0.79604358  0.12773664     0.35900
N2803       N  0.95626915  0.93980052  0.08092359    -0.38900
N2804       N  0.47440606  0.77196648  0.13220433    -0.38900
N2805       N  0.03584030  0.95634807  0.12743546    -0.38300
N2806       N  0.88255537  0.74956647  0.09052307    -0.38300
C2807       C  0.91365454  0.67845288  0.17443989    -0.05000
C2808       C  0.94430489  0.68279299  0.18835139    -0.02100
C2809       C  0.47024943  0.72054824  0.20427267     0.02900
C2810       C  0.96018474  0.74656417  0.19831154    -0.05000
C2811       C  0.92857380  0.74178546  0.18607334    -0.02100
C2812       C  0.90650374  0.70878389  0.17324096     0.02900
C2813       C  0.95267665  0.65277834  0.19084366     0.37500
C2814       C  0.92075673  0.77237403  0.18484730     0.37500
C2815       C  0.87933520  0.70845280  0.15677513     0.35900
C2816       C  0.50106686  0.72599007  0.21932736     0.35900
N2817       N  0.85861424  0.70930094  0.14327925    -0.38900
N2818       N  0.52563308  0.73037899  0.23134955    -0.38900
N2819       N  0.91474215  0.79685317  0.18390630    -0.38300
N2820       N  0.95960097  0.62901056  0.19288087    -0.38300
C2821       C  0.64490095  0.95527277  0.16181782    -0.05000
C2822       C  0.65813154  0.49175992  0.16625431    -0.02100
C2823       C  0.69386710  0.51581330  0.15706346     0.02900
C2824       C  0.71110989  0.50279655  0.14076669    -0.05000
C2825       C  0.69677499  0.96857227  0.13403491    -0.02100
C2826       C  0.65973776  0.94513448  0.14190538     0.02900
C2827       C  0.64214247  0.50668399  0.18315688     0.37500
C2828       C  0.71217334  0.95661312  0.11486723     0.37500
C2829       C  0.63708984  0.91086165  0.12899543     0.35900
C2830       C  0.71304055  0.55429118  0.16482558     0.35900
N2831       N  0.61914628  0.88362941  0.11856161    -0.38900
N2832       N  0.72789968  0.58469615  0.17145781    -0.38900
N2833       N  0.72455907  0.94714605  0.09960214    -0.38300
N2834       N  0.62959426  0.51886091  0.19653550    -0.38300
C2835       C  0.58863992  0.95966436  0.26401266    -0.05000
C2836       C  0.62724220  0.97563566  0.26707664    -0.02100
C2837       C  0.64941095  0.50486592  0.28082509     0.02900
C2838       C  0.63026087  0.51248230  0.29923480    -0.05000
C2839       C  0.59070407  0.49195216  0.29929660    -0.02100
C2840       C  0.57125477  0.46404946  0.28206226     0.02900
C2841       C  0.64749239  0.96259923  0.25246170     0.37500
C2842       C  0.56913444  0.49860708  0.31712462     0.37500
C2843       C  0.53098842  0.44270079  0.28287637     0.35900
C2844       C  0.68951164  0.52630522  0.27907596     0.35900
N2845       N  0.49894003  0.42569354  0.28371113    -0.38900
N2846       N  0.72151109  0.54344863  0.27761920    -0.38900
N2847       N  0.55124113  0.50363780  0.33095384    -0.38300
N2848       N  0.66336987  0.95201368  0.24070475    -0.38300
C2849       C  0.84097793  0.87662071  0.36908780    -0.05000
C2850       C  0.87771621  0.88263377  0.36597748    -0.02100
C2851       C  0.89579942  0.87483543  0.38472949     0.02900
C2852       C  0.87737185  0.85952369  0.40679911    -0.05000
C2853       C  0.84004447  0.85104253  0.40938152    -0.02100
C2854       C  0.82241008  0.86059966  0.39114767     0.02900
C2855       C  0.89730066  0.89552808  0.34319433     0.37500
C2856       C  0.81832428  0.82908586  0.42979276     0.37500
C2857       C  0.78480089  0.85317453  0.39541053     0.35900
C2858       C  0.93340673  0.88190955  0.38069693     0.35900
N2859       N  0.75479315  0.84709998  0.39895294    -0.38900
N2860       N  0.96317599  0.88729663  0.37712195    -0.38900
N2861       N  0.80053842  0.81071637  0.44564758    -0.38300
N2862       N  0.92245894  0.43280556  0.33114696    -0.38300
C2863       C  0.81946711  0.96330419  0.23887511    -0.05000
C2864       C  0.83875632  0.50279513  0.24113584    -0.02100
C2865       C  0.84532489  0.52921701  0.22285293     0.02900
C2866       C  0.82940186  0.51748663  0.20005303    -0.05000
C2867       C  0.80487726  0.47945965  0.19594963    -0.02100
C2868       C  0.80306186  0.95257983  0.21586167     0.02900
C2869       C  0.85823269  0.51583303  0.26372714     0.37500
C2870       C  0.79525458  0.96805919  0.17395514     0.37500
C2871       C  0.77491694  0.91445280  0.21128540     0.35900
C2872       C  0.86921616  0.56857137  0.22730509     0.35900
N2873       N  0.75236949  0.88417314  0.20733598    -0.38900
N2874       N  0.88802891  0.59998008  0.23091255    -0.38900
N2875       N  0.78105724  0.95915546  0.15541473    -0.38300
N2876       N  0.87398653  0.52640713  0.28166268    -0.38300
C2877       C  0.88676968  0.88380350  0.26448756    -0.05000
C2878       C  0.90880354  0.91152231  0.24744988    -0.02100
C2879       C  0.93591302  0.90836653  0.23396602     0.02900
C2880       C  0.94105761  0.87732520  0.23734160    -0.05000
C2881       C  0.91829619  0.84921109  0.25404807    -0.02100
C2882       C  0.89226116  0.85313338  0.26808819     0.02900
C2883       C  0.90384072  0.94346144  0.24355591     0.37500
C2884       C  0.41834446  0.81808155  0.25054245     0.37500
C2885       C  0.87235020  0.82645528  0.28714561     0.35900
C2886       C  0.95969697  0.93819197  0.21759582     0.35900
N2887       N  0.85681683  0.80558392  0.30256715    -0.38900
N2888       N  0.97877742  0.96215426  0.20471584    -0.38900
N2889       N  0.41815481  0.79002046  0.25112699    -0.38300
N2890       N  0.90075929  0.96941027  0.24021099    -0.38300
C2891       C  0.61646835  0.83938118  0.24051627    -0.05000
C2892       C  0.61876024  0.84419762  0.26594912    -0.02100
C2893       C  0.64573037  0.84058538  0.27925641     0.02900
C2894       C  0.67159577  0.83361508  0.26732416    -0.05000
C2895       C  0.66659825  0.82456990  0.24258016    -0.02100
C2896       C  0.64010755  0.82866023  0.22909247     0.02900
C2897       C  0.59505370  0.85494977  0.27880484     0.37500
C2898       C  0.68786559  0.80961876  0.23110124     0.37500
C2899       C  0.63739193  0.82171913  0.20344610     0.35900
C2900       C  0.64743659  0.84536240  0.30515617     0.35900
N2901       N  0.63550309  0.81653723  0.18295826    -0.38900
N2902       N  0.64868435  0.84921807  0.32577549    -0.38900
N2903       N  0.70458639  0.79740795  0.22199947    -0.38300
N2904       N  0.57670469  0.86344400  0.28977760    -0.38300
C2905       C  0.70335840  0.67672728  0.32774474    -0.05000
C2906       C  0.69073183  0.69949430  0.33861687    -0.02100
C2907       C  0.70371839  0.73620171  0.33043529     0.02900
C2908       C  0.73067078  0.75170618  0.31184970    -0.05000
C2909       C  0.74219964  0.72894205  0.30024615    -0.02100
C2910       C  0.72840341  0.69164867  0.30784911     0.02900
C2911       C  0.66494871  0.68613920  0.35877544     0.37500
C2912       C  0.76935172  0.74421644  0.28096844     0.37500
C2913       C  0.74057246  0.66914527  0.29493249     0.35900
C2914       C  0.68850547  0.75779735  0.34121105     0.35900
N2915       N  0.75046189  0.65137860  0.28460070    -0.38900
N2916       N  0.67610568  0.77457734  0.34999003    -0.38900
N2917       N  0.79095608  0.75627925  0.26555928    -0.38300
N2918       N  0.64443019  0.67580763  0.37483248    -0.38300
C2919       C  0.72621468  0.49271098  0.36288393    -0.05000
C2920       C  0.70669623  0.46877458  0.34387367    -0.02100
C2921       C  0.72369371  0.95487754  0.33132767     0.02900
C2922       C  0.75577749  0.95586843  0.34068504    -0.05000
C2923       C  0.77285543  0.47301091  0.36029995    -0.02100
C2924       C  0.75939305  0.49488948  0.37109315     0.02900
C2925       C  0.67050722  0.46311495  0.33713183     0.37500
C2926       C  0.80527699  0.47302478  0.37004823     0.37500
C2927       C  0.78005837  0.52019479  0.39027111     0.35900
C2928       C  0.70920084  0.93816837  0.30816214     0.35900
N2929       N  0.79691179  0.54043519  0.40548591    -0.38900
N2930       N  0.69852449  0.92637855  0.28922967    -0.38900
N2931       N  0.83109322  0.47288560  0.37779187    -0.38300
N2932       N  0.64111617  0.45753427  0.33219224    -0.38300
C2933       C  0.83647720  0.01158216  0.79676946    -0.05000
C2934       C  0.84546316  0.54836954  0.79990196    -0.02100
C2935       C  0.86460827  0.57448090  0.78136018     0.02900
C2936       C  0.87569959  0.56359024  0.76016716    -0.05000
C2937       C  0.86480155  0.02560686  0.75676264    -0.02100
C2938       C  0.84525443  0.99973783  0.77534217     0.02900
C2939       C  0.83371975  0.55976533  0.82125214     0.37500
C2940       C  0.87708393  0.01313374  0.73619593     0.37500
C2941       C  0.83411879  0.96080311  0.77242531     0.35900
C2942       C  0.87242956  0.61249091  0.78433168     0.35900
N2943       N  0.82476899  0.92967798  0.76982383    -0.38900
N2944       N  0.87856548  0.64269867  0.78716398    -0.38900
N2945       N  0.88756626  0.00283515  0.72028417    -0.38300
N2946       N  0.82395545  0.56869385  0.83816988    -0.38300
C2947       C  0.72304831  0.51936052  0.86207578    -0.05000
C2948       C  0.72852520  0.54991700  0.87617289    -0.02100
C2949       C  0.71444395  0.57326141  0.86842014     0.02900
C2950       C  0.69517323  0.56658385  0.84622649    -0.05000
C2951       C  0.68630187  0.53348701  0.83372152    -0.02100
C2952       C  0.69904730  0.50961033  0.84201671     0.02900
C2953       C  0.74880261  0.55765808  0.89853706     0.37500
C2954       C  0.66572239  0.52418201  0.81142360     0.37500
C2955       C  0.69173245  0.97893926  0.82462525     0.35900
C2956       C  0.71979874  0.60399432  0.88353220     0.35900
N2957       N  0.68418339  0.95291247  0.81314630    -0.38900
N2958       N  0.72405195  0.62844459  0.89564916    -0.38900
N2959       N  0.64963706  0.51602353  0.79351708    -0.38300
N2960       N  0.76418415  0.06455435  0.91427985    -0.38300
C2961       C  0.76188364  0.84962365  0.82775105    -0.05000
C2962       C  0.78624971  0.84286448  0.81336014    -0.02100
C2963       C  0.77362962  0.80776457  0.80248286     0.02900
C2964       C  0.73723603  0.77852453  0.80654293    -0.05000
C2965       C  0.71256011  0.78509230  0.82021139    -0.02100
C2966       C  0.72469646  0.81998727  0.83106652     0.02900
C2967       C  0.82446644  0.87159994  0.80968329     0.37500
C2968       C  0.67443175  0.75549373  0.82328950     0.37500
C2969       C  0.69869533  0.82408152  0.84652230     0.35900
C2970       C  0.79734501  0.80232028  0.78579202     0.35900
N2971       N  0.67758050  0.82684093  0.85873898    -0.38900
N2972       N  0.81595899  0.79856485  0.77186712    -0.35300
N2973       N  0.64397522  0.73201815  0.82543869    -0.38300
N2974       N  0.85511129  0.89429502  0.80689204    -0.38300
C2975       C  0.82675222  0.91050132  0.92914837    -0.05000
C2976       C  0.80974714  0.90611002  0.95206518    -0.02100
C2977       C  0.81542755  0.88592606  0.97049096     0.02900
C2978       C  0.83878875  0.87069909  0.96667160    -0.05000
C2979       C  0.85462041  0.87356726  0.94384580    -0.02100
C2980       C  0.84892027  0.89348458  0.92519016     0.02900
C2981       C  0.78481935  0.92061157  0.95671307     0.37500
C2982       C  0.87677861  0.85586267  0.93951033     0.37500
C2983       C  0.86675517  0.89680370  0.90214733     0.35900
C2984       C  0.79570585  0.87915745  0.99319355     0.35900
N2985       N  0.88094833  0.89928582  0.88377996    -0.38900
N2986       N  0.77994014  0.87357911  0.01126286    -0.38900
N2987       N  0.89411063  0.84144042  0.93582593    -0.38300
N2988       N  0.76475858  0.93188597  0.96060255    -0.38300
C2989       C  0.92296842  0.62462627  0.07087806    -0.05000
C2990       C  0.92845651  0.65912734  0.06260107    -0.02100
C2991       C  0.46464923  0.68567022  0.05057534     0.02900
C2992       C  0.48325995  0.66984512  0.03766803    -0.05000
C2993       C  0.97269481  0.63075139  0.04415148    -0.02100
C2994       C  0.94540217  0.61072514  0.06187306     0.02900
C2995       C  0.90487794  0.67288295  0.07193981     0.37500
C2996       C  0.49830351  0.61804960  0.03552447     0.37500
C2997       C  0.94044897  0.57559786  0.07100135     0.35900
C2998       C  0.47173787  0.72299045  0.04531459     0.35900
N2999       N  0.93666077  0.54765349  0.07823285    -0.38900
N3000       N  0.47733884  0.75284042  0.04141419    -0.38900
N3001       N  0.51548892  0.60522188  0.02798552    -0.38300
N3002       N  0.88540854  0.68292379  0.07956935    -0.38300
C3003       C  0.59683465  0.69058550  0.90504006    -0.05000
C3004       C  0.57715576  0.66887054  0.88520057    -0.02100
C3005       C  0.59511008  0.65838992  0.86781445     0.02900
C3006       C  0.63388685  0.67127583  0.86921673    -0.05000
C3007       C  0.65377640  0.69432375  0.88886360    -0.02100
C3008       C  0.63506099  0.70281631  0.90699586     0.02900
C3009       C  0.53790761  0.65672183  0.88281340     0.37500
C3010       C  0.69342978  0.70884430  0.89094612     0.37500
C3011       C  0.65513245  0.72370571  0.92791438     0.35900
C3012       C  0.57289240  0.63438361  0.84851195     0.35900
N3013       N  0.67139979  0.73994965  0.94467141    -0.38900
N3014       N  0.55413489  0.61477384  0.83360205    -0.38900
N3015       N  0.72513261  0.72078428  0.89256635    -0.38300
N3016       N  0.50671720  0.64718421  0.88069022    -0.38300
C3017       C  0.88935112  0.55426629  0.90260622    -0.05000
C3018       C  0.88919503  0.58800652  0.90653852    -0.02100
C3019       C  0.91726867  0.61645736  0.92028617     0.02900
C3020       C  0.94675185  0.61232830  0.92958617    -0.05000
C3021       C  0.94791695  0.57945705  0.92495108    -0.02100
C3022       C  0.91901881  0.55020795  0.91209640     0.02900
C3023       C  0.86087349  0.59444577  0.89596054     0.37500
C3024       C  0.48611814  0.58305864  0.93020412     0.37500
C3025       C  0.91989828  0.51576103  0.90933608     0.35900
C3026       C  0.91569932  0.65025902  0.92461926     0.35900
N3027       N  0.92071752  0.48835589  0.90720651    -0.38900
N3028       N  0.91396080  0.67700246  0.92769254    -0.38900
N3029       N  0.51284734  0.58231809  0.93514651    -0.38300
N3030       N  0.84089793  0.10385563  0.88484693    -0.38300
C3031       C  0.68165514  0.88052651  0.90390218    -0.05000
C3032       C  0.68735456  0.85796342  0.92050414    -0.02100
C3033       C  0.65935518  0.83542058  0.93690354     0.02900
C3034       C  0.62312099  0.82991572  0.93408504    -0.05000
C3035       C  0.61639576  0.84951230  0.91541047    -0.02100
C3036       C  0.64601702  0.87619904  0.90133532     0.02900
C3037       C  0.72057776  0.85473331  0.91898414     0.37500
C3038       C  0.57914718  0.84197097  0.90992397     0.37500
C3039       C  0.63978453  0.89922483  0.88432067     0.35900
C3040       C  0.66815604  0.81732625  0.95614399     0.35900
N3041       N  0.63493051  0.91768982  0.87078246    -0.38900
N3042       N  0.67578931  0.80382199  0.97174811    -0.38900
N3043       N  0.54961693  0.83565803  0.90466997    -0.38300
N3044       N  0.74609627  0.85058342  0.91726279    -0.38300
C3045       C  0.96492512  0.76471940  0.96932471    -0.05000
C3046       C  0.97327477  0.80212888  0.96774127    -0.02100
C3047       C  0.94896055  0.81319428  0.97767020     0.02900
C3048       C  0.91796945  0.78769789  0.99160235    -0.05000
C3049       C  0.91137837  0.75076391  0.99440086    -0.02100
C3050       C  0.93307599  0.73877517  0.98189200     0.02900
C3051       C  0.00818110  0.83003881  0.95734334     0.37500
C3052       C  0.88638369  0.72652057  0.01286153     0.37500
C3053       C  0.92497058  0.70045764  0.98422787     0.35900
C3054       C  0.95719622  0.85132720  0.97412140     0.35900
N3055       N  0.91860161  0.66998917  0.98612497    -0.38900
N3056       N  0.96404942  0.88180458  0.97124808    -0.38900
N3057       N  0.86797633  0.70745401  0.02824588    -0.38300
N3058       N  0.53163148  0.85510638  0.95084899    -0.38300
C3059       C  0.64263955  0.73902142  0.01371234    -0.05000
C3060       C  0.66055937  0.77020130  0.02943273    -0.02100
C3061       C  0.69738340  0.78284927  0.03723658     0.02900
C3062       C  0.71681841  0.76505026  0.02929350    -0.05000
C3063       C  0.69787795  0.73194811  0.01588443    -0.02100
C3064       C  0.66077516  0.71829963  0.00890631     0.02900
C3065       C  0.64173899  0.78972347  0.03783678     0.37500
C3066       C  0.71661358  0.71168670  0.00884397     0.37500
C3067       C  0.64150717  0.68239940  0.99715969     0.35900
C3068       C  0.71587148  0.81514997  0.05260649     0.35900
N3069       N  0.62620146  0.65361829  0.98801846    -0.38900
N3070       N  0.73066517  0.84079763  0.06494986    -0.38900
N3071       N  0.73094715  0.69517093  0.00276722    -0.38300
N3072       N  0.62691614  0.80538403  0.04474276    -0.38300
loop_ 
_geom_bond_atom_site_label_1 
_geom_bond_atom_site_label_2 
_geom_bond_distance 
_geom_bond_site_symmetry_2 
_ccdc_geom_bond_type 
O1           Al9   1.919   1_655  S
O1         C1552   1.262       .  A
C2           O12   1.269       .  A
C2            O3   1.259       .  A
C2          C730   1.484       .  S
O3           Al5   1.895       .  S
O4           Al5   1.906       .  S
O4            C6   1.264       .  A
Al5          O13   1.910   1_455  S
Al5        O1551   1.875   1_455  S
Al5          O14   1.788       .  S
C6           O19   1.263       .  A
C6          C699   1.484       .  S
O7           Al9   1.920       .  S
O7           C17   1.260       .  A
O8          Al18   1.914   1_554  S
O8           C21   1.269       .  A
Al9          O22   1.921   1_556  S
Al9          O19   1.909       .  S
Al9          O14   1.780       .  S
O10         Al18   1.887   1_554  S
O10          C17   1.250   1_554  A
O11         Al18   1.885       .  S
O11          C20   1.253   1_455  A
O12         Al18   1.911       .  S
O13          C20   1.261       .  A
O14         Al18   1.791       .  S
O15       Al1541   1.868       .  S
O15          C16   1.250       .  A
C16        O1537   1.259       .  A
C16         C716   1.489       .  S
C17         C755   1.508   1_556  S
C20        C2277   1.472       .  S
C21          O22   1.268       .  A
C21         C688   1.517   1_455  S
O23         Al31   1.948       .  S
O23         C806   1.271       .  A
C24          O34   1.269       .  A
C24          O25   1.253       .  A
C24         C727   1.474       .  S
O25         Al27   1.847       .  S
O26         Al27   1.949       .  S
O26          C28   1.271       .  A
Al27         O35   1.970       .  S
Al27        O805   1.884       .  S
Al27         O36   1.779       .  S
C28          O41   1.263       .  A
C28         C671   1.502       .  S
O29         Al31   1.958       .  S
O29          C39   1.269       .  A
O30         Al40   1.935       .  S
O30          C43   1.267       .  A
Al31         O44   1.884       .  S
Al31         O41   1.894       .  S
Al31         O36   1.772       .  S
O32         Al40   1.861       .  S
O32          C39   1.251       .  A
O33         Al40   1.861       .  S
O33          C42   1.250       .  A
O34         Al40   1.946       .  S
O35          C42   1.269       .  A
O36         Al40   1.770       .  S
O37        Al795   1.886   1_545  S
O37          C38   1.263       .  A
C38         O791   1.270   1_545  A
C38         C713   1.496       .  S
C39         C657   1.509       .  S
C42        C1411   1.507       .  S
C43          O44   1.260       .  A
C43         C629   1.480       .  S
O45         Al53   1.935       .  S
O45          C60   1.267       .  A
C46          O56   1.273       .  A
C46          O47   1.255       .  A
C46         C590   1.492       .  S
O47         Al49   1.849       .  S
O48         Al49   1.959       .  S
O48          C50   1.273       .  A
Al49         O57   1.974       .  S
Al49         O59   1.867       .  S
Al49         O58   1.772       .  S
C50          O63   1.261       .  A
C50         C559   1.508       .  S
O51         Al53   1.920       .  S
O51          C61   1.264       .  A
O52         Al62   1.947       .  S
O52          C65   1.270       .  A
Al53         O66   1.879       .  S
Al53         O63   1.894       .  S
Al53         O58   1.773       .  S
O54         Al62   1.872       .  S
O54          C61   1.256       .  A
O55         Al62   1.859       .  S
O55          C64   1.251       .  A
O56         Al62   1.967       .  S
O57          C64   1.270       .  A
O58         Al62   1.769       .  S
O59          C60   1.259       .  A
C60         C573   1.480       .  S
C61         C618   1.485       .  S
C64         C604   1.494       .  S
C65          O66   1.260       .  A
C65         C545   1.517       .  S
O67         Al75   1.928       .  S
O67        C1618   1.265   1_455  A
C68          O78   1.270       .  A
C68          O69   1.253       .  A
C68         C587   1.497       .  S
O69         Al71   1.857       .  S
O70         Al71   1.948       .  S
O70          C72   1.269       .  A
Al71         O79   1.946       .  S
Al71       O1617   1.877   1_455  S
Al71         O80   1.777       .  S
C72          O85   1.264       .  A
C72         C531   1.492       .  S
O73         Al75   1.926       .  S
O73          C83   1.264       .  A
O74         Al84   1.958       .  S
O74          C87   1.273       .  A
Al75         O88   1.901       .  S
Al75         O85   1.908       .  S
Al75         O80   1.776       .  S
O76         Al84   1.887       .  S
O76          C83   1.259       .  A
O77         Al84   1.849       .  S
O77          C86   1.252   1_455  A
O78         Al84   1.952       .  S
O79          C86   1.265   1_455  A
O80         Al84   1.777       .  S
O81       Al1607   1.863       .  S
O81          C82   1.247       .  A
C82        O1603   1.256       .  A
C82         C576   1.485       .  S
C83         C517   1.486       .  S
C86        C2042   1.474       .  S
C87          O88   1.265       .  A
C87         C492   1.507   1_455  S
O89         Al97   1.938       .  S
O89         C104   1.266       .  A
C90         O100   1.267       .  A
C90          O91   1.253       .  A
C90         C475   1.492       .  S
O91         Al93   1.853       .  S
O92         Al93   1.945       .  S
O92          C94   1.270       .  A
Al93        O101   1.957       .  S
Al93        O103   1.881       .  S
Al93        O102   1.775       .  S
C94         O107   1.262       .  A
C94         C685   1.484       .  S
O95         Al97   1.948       .  S
O95         C105   1.270       .  A
O96        Al106   1.937       .  S
O96         C109   1.267       .  A
Al97        O110   1.890       .  S
Al97        O107   1.892       .  S
Al97        O102   1.775       .  S
O98        Al106   1.880       .  S
O98         C105   1.258       .  A
O99        Al106   1.855       .  S
O99         C108   1.253       .  A
O100       Al106   1.943       .  S
O101        C108   1.270       .  A
O102       Al106   1.775       .  S
O103        C104   1.257       .  A
C104       C1232   1.477   1_545  S
C105        C503   1.511       .  S
C108        C520   1.488       .  S
C109        O110   1.261       .  A
C109        C562   1.480       .  S
O111       Al119   1.929       .  S
O111        C126   1.263       .  A
C112        O122   1.264       .  A
C112        O113   1.254       .  A
C112        C478   1.490       .  S
O113       Al115   1.860       .  S
O114       Al115   1.941       .  S
O114        C116   1.268       .  A
Al115       O123   1.952       .  S
Al115       O125   1.887       .  S
Al115       O124   1.779       .  S
C116        O129   1.261       .  A
C116        C489   1.486       .  S
O117       Al119   1.935       .  S
O117        C127   1.267       .  A
O118       Al128   1.942   1_556  S
O118        C131   1.267       .  A
Al119       O132   1.888       .  S
Al119       O129   1.893       .  S
Al119       O124   1.782       .  S
O120       Al128   1.883       .  S
O120        C127   1.257       .  A
O121       Al128   1.869       .  S
O121        C130   1.256       .  A
O122       Al128   1.933       .  S
O123        C130   1.269       .  A
O124       Al128   1.787       .  S
O125        C126   1.258       .  A
C126        C461   1.479       .  S
C127        C744   1.505   1_554  S
C130        C758   1.484       .  S
C131        O132   1.260   1_556  A
C131        C674   1.483       .  S
O133       Al141   1.902       .  S
O133        C148   1.259       .  A
C134        O144   1.263       .  A
C134        O135   1.260       .  A
C134        C447   1.466       .  S
O135       Al137   1.898       .  S
O136       Al137   1.915       .  S
O136        C138   1.268       .  A
Al137       O145   1.921       .  S
Al137       O147   1.870       .  S
Al137       O146   1.788       .  S
C138        O151   1.265       .  A
C138        C422   1.523       .  S
O139       Al141   1.915       .  S
O139        C149   1.261       .  A
O140       Al150   1.907       .  S
O140        C153   1.267       .  A
Al141       O154   1.929       .  S
Al141       O151   1.916       .  S
Al141       O146   1.780       .  S
O142       Al150   1.903       .  S
O142        C149   1.254       .  A
O143       Al150   1.909       .  S
O143        C152   1.258       .  A
O144       Al150   1.906       .  S
O145        C152   1.262       .  A
O146       Al150   1.793       .  S
O147        C148   1.250       .  A
C148        C433   1.486       .  S
C149        C646   1.514       .  S
C152        C660   1.483       .  S
C153        O154   1.269       .  A
C153        C702   1.499       .  S
O155       Al163   1.942       .  S
O155        C170   1.266       .  A
C156        O166   1.266       .  A
C156        O157   1.251       .  A
C156        C450   1.463       .  S
O157       Al159   1.841       .  S
O158       Al159   1.949       .  S
O158        C160   1.272       .  A
Al159       O167   1.937       .  S
Al159       O169   1.888       .  S
Al159       O168   1.789       .  S
C160        O173   1.263       .  A
C160        C632   1.498       .  S
O161       Al163   1.942       .  S
O161        C171   1.262       .  A
O162       Al172   1.937       .  S
O162        C175   1.270       .  A
Al163       O176   1.882       .  S
Al163       O173   1.894       .  S
Al163       O168   1.788       .  S
O164       Al172   1.882       .  S
O164        C171   1.252       .  A
O165       Al172   1.865       .  S
O165        C174   1.252       .  A
O166       Al172   1.930       .  S
O167        C174   1.262       .  A
O168       Al172   1.784       .  S
O169        C170   1.257       .  A
C170       C1972   1.492       .  S
C171        C405   1.498       .  S
C174        C394   1.498       .  S
C175        O176   1.262       .  A
C175        C377   1.478       .  S
O177       Al185   1.912       .  S
O177        C192   1.260       .  A
C178        O188   1.270       .  A
C178        O179   1.249       .  A
C178        C335   1.503       .  S
O179       Al181   1.838       .  S
O180       Al181   1.938       .  S
O180        C182   1.273       .  A
Al181       O189   1.942       .  S
Al181       O191   1.879       .  S
Al181       O190   1.781       .  S
C182        O195   1.270       .  A
C182        C548   1.504       .  S
O183       Al185   1.934       .  S
O183        C193   1.260       .  A
O184       Al194   1.962       .  S
O184        C197   1.275       .  A
Al185       O198   1.891       .  S
Al185       O195   1.909       .  S
Al185       O190   1.787       .  S
O186       Al194   1.862       .  S
O186        C193   1.248       .  A
O187       Al194   1.849       .  S
O187        C196   1.249       .  A
O188       Al194   1.948       .  S
O189        C196   1.265       .  A
O190       Al194   1.768       .  S
O191        C192   1.257       .  A
C192       C1857   1.484       .  S
C193        C366   1.486       .  S
C196        C349   1.497       .  S
C197        O198   1.264       .  A
C197        C307   1.490       .  S
O199       Al207   1.903       .  S
O199        C214   1.258       .  A
C200        O210   1.264       .  A
C200        O201   1.252       .  A
C200        C338   1.506       .  S
O201       Al203   1.885       .  S
O202       Al203   1.909       .  S
O202        C204   1.265       .  A
Al203       O211   1.898       .  S
Al203       O213   1.873       .  S
Al203       O212   1.788       .  S
C204        O217   1.269       .  A
C204        C293   1.489       .  S
O205       Al207   1.893       .  S
O205        C215   1.260       .  A
O206       Al216   1.924       .  S
O206        C219   1.266       .  A
Al207       O220   1.914       .  S
Al207       O217   1.937       .  S
Al207       O212   1.776       .  S
O208       Al216   1.904       .  S
O208        C215   1.258       .  A
O209       Al216   1.905       .  S
O209        C218   1.262       .  A
O210       Al216   1.911       .  S
O211        C218   1.261       .  A
O212       Al216   1.782       .  S
O213        C214   1.253       .  A
C214       C1092   1.473   1_545  S
C215        C601   1.507       .  S
C218        C615   1.467   1_545  S
C219        O220   1.264       .  A
C219        C534   1.525       .  S
O221       Al229   1.928       .  S
O221       C1004   1.263       .  A
C222        O232   1.267       .  A
C222        O223   1.250       .  A
C222        C279   1.468       .  S
O223       Al225   1.838       .  S
O224       Al225   1.951       .  S
O224        C226   1.272       .  A
Al225       O233   1.954       .  S
Al225      O1003   1.873       .  S
Al225       O234   1.785       .  S
C226        O239   1.266       .  A
C226        C310   1.503       .  S
O227       Al229   1.945       .  S
O227        C237   1.265       .  A
O228       Al238   1.944       .  S
O228        C241   1.270       .  A
Al229       O242   1.892       .  S
Al229       O239   1.905       .  S
Al229       O234   1.787       .  S
O230       Al238   1.881       .  S
O230        C237   1.253       .  A
O231       Al238   1.867       .  S
O231        C240   1.253       .  A
O232       Al238   1.943       .  S
O233        C240   1.266       .  A
O234       Al238   1.783       .  S
O235       Al993   1.877   1_545  S
O235        C236   1.256       .  A
C236        O989   1.266   1_545  A
C236        C265   1.480       .  S
C237        C391   1.499       .  S
C240       C1176   1.498       .  S
C241        O242   1.262       .  A
C241        C419   1.488       .  S
O243       Al251   1.926       .  S
O243        C258   1.262       .  A
C244        O254   1.266       .  A
C244        O245   1.250       .  A
C244        C282   1.464       .  S
O245       Al247   1.837       .  S
O246       Al247   1.937       .  S
O246        C248   1.269       .  A
Al247       O255   1.925       .  S
Al247       O257   1.884       .  S
Al247       O256   1.783       .  S
C248        O261   1.265       .  A
C248        C380   1.496       .  S
O249       Al251   1.936       .  S
O249        C259   1.263       .  A
O250       Al260   1.954       .  S
O250        C263   1.273       .  A
Al251       O264   1.885       .  S
Al251       O261   1.903       .  S
Al251       O256   1.782       .  S
O252       Al260   1.873       .  S
O252        C259   1.252       .  A
O253       Al260   1.861       .  S
O253        C262   1.252       .  A
O254       Al260   1.938       .  S
O255        C262   1.262       .  A
O256       Al260   1.786       .  S
O257        C258   1.255       .  A
C258        C268   1.471       .  S
C259       C1888   1.492       .  S
C262        C363   1.477       .  S
C263        O264   1.263       .  A
C263        C296   1.508       .  S
C265        C266   1.419       .  A
C265        C270   1.409       .  A
C266        C267   1.411       .  A
C266        C271   1.451       .  S
C267        C268   1.407       .  A
C267        C274   1.452       .  S
C268        C269   1.412       .  A
C269        C270   1.407       .  A
C269        C272   1.450       .  S
C270        C273   1.452       .  S
C271        N278   1.158       .  T
C272        N277   1.157       .  T
C273        N275   1.157       .  T
C274        N276   1.158       .  T
C279        C280   1.410       .  A
C279        C284   1.412       .  A
C280        C281   1.411       .  A
C280        C285   1.449       .  S
C281        C282   1.411       .  A
C281        C288   1.450       .  S
C282        C283   1.409       .  A
C283        C284   1.404       .  A
C283        C286   1.453       .  S
C284        C287   1.453       .  S
C285        N292   1.157       .  T
C286        N291   1.157       .  T
C287        N289   1.157       .  T
C288        N290   1.157       .  T
C293        C294   1.408       .  A
C293        C298   1.411       .  A
C294        C295   1.410       .  A
C294        C299   1.449       .  S
C295        C296   1.422       .  A
C295        C302   1.453       .  S
C296        C297   1.423       .  A
C297        C298   1.420       .  A
C297        C300   1.450       .  S
C298        C301   1.451       .  S
C299        N306   1.156       .  T
C300        N305   1.157       .  T
C301        N303   1.157       .  T
C302        N304   1.158       .  T
C307        C308   1.411       .  A
C307        C312   1.409       .  A
C308       C1845   1.416       .  A
C308       C1849   1.451       .  S
C309        C310   1.417       .  A
C309       C1844   1.414       .  A
C309        C316   1.451       .  S
C310       C1847   1.420   1_455  A
C311        C312   1.418       .  A
C311       C1846   1.421       .  A
C311        C314   1.450       .  S
C312        C315   1.451       .  S
C313       C1844   1.448       .  S
C313        N320   1.156       .  T
C314        N319   1.157       .  T
C315        N317   1.157       .  T
C316        N318   1.157       .  T
C321       C1728   1.487   1_455  S
C321        C326   1.408       .  A
C321       C1858   1.414       .  A
C322       C1857   1.421       .  A
C322       C1859   1.408       .  A
C322        C327   1.453       .  S
C323        C324   1.420       .  A
C323       C1858   1.409       .  A
C323       C1098   1.453       .  S
C324        C982   1.502       .  S
C324        C325   1.427       .  A
C325        C326   1.409       .  A
C325        C328   1.454       .  S
C326        C329   1.451       .  S
C327        N334   1.158       .  T
C328        N333   1.158       .  T
C329        N331   1.156       .  T
C330       C1091   1.453   1_545  S
C330        N332   1.157       .  T
C335        C336   1.426       .  A
C335        C340   1.412       .  A
C336        C337   1.409       .  A
C336        C341   1.453       .  S
C337        C338   1.415       .  A
C337        C344   1.456       .  S
C338        C339   1.430       .  A
C339        C340   1.414       .  A
C339        C342   1.454       .  S
C340        C343   1.453       .  S
C341        N348   1.156       .  T
C342        N347   1.157       .  T
C343        N345   1.157       .  T
C344        N346   1.158       .  T
C349        C354   1.426       .  A
C349       C1886   1.415       .  A
C350        C351   1.415       .  A
C350       C1885   1.417   1_455  A
C350        C355   1.450       .  S
C351       C1888   1.417       .  A
C351        C358   1.452       .  S
C352       C1795   1.478       .  S
C352        C353   1.405       .  A
C352       C1887   1.413       .  A
C353        C354   1.407       .  A
C353        C356   1.452       .  S
C354        C357   1.454       .  S
C355        N362   1.157       .  T
C356        N361   1.157       .  T
C357        N359   1.157       .  T
C358        N360   1.157       .  T
C363        C364   1.406       .  A
C363        C368   1.415       .  A
C364        C365   1.409       .  A
C364        C369   1.452       .  S
C365        C366   1.421       .  A
C365        C372   1.452       .  S
C366        C367   1.412       .  A
C367        C368   1.409       .  A
C367        C370   1.451       .  S
C368        C371   1.452       .  S
C369        N376   1.157       .  T
C370        N375   1.158       .  T
C371        N373   1.157       .  T
C372        N374   1.157       .  T
C377        C378   1.407       .  A
C377        C382   1.409       .  A
C378        C379   1.412       .  A
C378        C383   1.451       .  S
C379       C1916   1.418       .  A
C379        C386   1.451       .  S
C380        C381   1.416       .  A
C380       C1915   1.417       .  A
C381       C1918   1.413       .  A
C381        C384   1.450       .  S
C382       C1917   1.411       .  A
C382       C1921   1.449       .  S
C383        N390   1.157       .  T
C384        N389   1.157       .  T
C385       C1918   1.449       .  S
C385        N387   1.156       .  T
C386        N388   1.157       .  T
C391        C392   1.419       .  A
C391       C1932   1.411       .  A
C392        C393   1.418       .  A
C392        C397   1.451       .  S
C393       C1930   1.413   1_455  A
C393        C400   1.449       .  S
C394        C395   1.420       .  A
C394       C1929   1.413       .  A
C395        C396   1.411       .  A
C395        C398   1.453       .  S
C396       C1927   1.411       .  A
C396        C399   1.449       .  S
C397        N404   1.157       .  T
C398        N403   1.157       .  T
C399        N401   1.157       .  T
C400        N402   1.157       .  T
C405        C406   1.409       .  A
C405        C410   1.418       .  A
C406        C407   1.412       .  A
C406        C411   1.446       .  S
C407        C408   1.421       .  A
C407       C1182   1.454   1_545  S
C408       C1008   1.500   1_545  S
C408        C409   1.413       .  A
C409        C410   1.420       .  A
C409        C412   1.450       .  S
C410        C413   1.450       .  S
C411        N418   1.155       .  T
C412        N417   1.157       .  T
C413        N415   1.157       .  T
C414       C1175   1.454       .  S
C414        N416   1.157       .  T
C419        C424   1.404       .  A
C419       C1188   1.408       .  A
C420        C421   1.416       .  A
C420       C1187   1.408       .  A
C420        C425   1.454       .  S
C421        C422   1.429       .  A
C421        C428   1.451       .  S
C422       C1191   1.433       .  A
C423        C424   1.417       .  A
C423       C1190   1.432       .  A
C423        C426   1.451       .  S
C424        C427   1.452       .  S
C425        N432   1.157       .  T
C426        N431   1.158       .  T
C427        N429   1.157       .  T
C428        N430   1.158       .  T
C433        C434   1.410       .  A
C433        C438   1.416       .  A
C434       C1971   1.409       .  A
C434        C439   1.453       .  S
C435       C1970   1.408       .  A
C435       C1972   1.415       .  A
C435        C442   1.446       .  S
C436       C1706   1.494   1_455  S
C436        C437   1.414       .  A
C436       C1971   1.417       .  A
C437        C438   1.412       .  A
C437        C440   1.449       .  S
C438        C441   1.452       .  S
C439       N1982   1.157       .  T
C440        N445   1.157       .  T
C441        N443   1.157       .  T
C442        N444   1.154       .  T
N446       C1975   1.157       .  T
C447        C448   1.409       .  A
C447        C452   1.407       .  A
C448        C449   1.404       .  A
C448        C453   1.448       .  S
C449        C450   1.407       .  A
C449        C456   1.452       .  S
C450        C451   1.412       .  A
C451        C452   1.408       .  A
C451        C454   1.451       .  S
C452        C455   1.449       .  S
C453        N460   1.156       .  T
C454        N459   1.157       .  T
C455        N457   1.157       .  T
C456        N458   1.157       .  T
C461        C462   1.407       .  A
C461        C466   1.416       .  A
C462        C463   1.409       .  A
C462        C467   1.450       .  S
C463        C464   1.416       .  A
C463       C1238   1.452       .  S
C464        C872   1.479       .  S
C464        C465   1.408       .  A
C465        C466   1.412       .  A
C465        C468   1.451       .  S
C466        C469   1.451       .  S
C467        N474   1.157       .  T
C468        N473   1.157       .  T
C469        N471   1.157       .  T
C470       C1231   1.451   1_545  S
C470        N472   1.157       .  T
C475        C476   1.421       .  A
C475        C480   1.411       .  A
C476        C477   1.408       .  A
C476        C481   1.453       .  S
C477        C478   1.412       .  A
C477        C484   1.451       .  S
C478        C479   1.421       .  A
C479        C480   1.408       .  A
C479        C482   1.453       .  S
C480        C483   1.450       .  S
C481        N488   1.157       .  T
C482        N487   1.157       .  T
C483        N485   1.157       .  T
C484        N486   1.158       .  T
C489        C490   1.407       .  A
C489        C494   1.407       .  A
C490       C2027   1.417       .  A
C490        C495   1.449       .  S
C491        C492   1.421       .  A
C491       C2026   1.420       .  A
C491        C498   1.449       .  S
C492       C2029   1.418       .  A
C493        C494   1.414       .  A
C493       C2028   1.426       .  A
C493        C496   1.452       .  S
C494        C497   1.452       .  S
C495        N502   1.156       .  T
C496        N501   1.158       .  T
C497        N499   1.157       .  T
C498        N500   1.157       .  T
C503        C504   1.423       .  A
C503        C508   1.428       .  A
C504       C2041   1.414       .  A
C504        C509   1.451       .  S
C505       C2040   1.417       .  A
C505       C2042   1.409       .  A
C505        C512   1.451   1_655  S
C506       C1622   1.480       .  S
C506        C507   1.405       .  A
C506       C2041   1.409       .  A
C507        C508   1.414       .  A
C507        C510   1.454       .  S
C508        C511   1.449       .  S
C509        N516   1.158       .  T
C510        N515   1.157       .  T
C511        N513   1.156       .  T
C512        N514   1.157       .  T
C517        C522   1.418       .  A
C517       C1286   1.412       .  A
C518        C519   1.407   1_565  A
C518       C1285   1.417       .  A
C518        C523   1.454   1_565  S
C519        C520   1.418       .  A
C519        C526   1.454       .  S
C520       C1289   1.408   1_545  A
C521        C522   1.415       .  A
C521       C1288   1.409       .  A
C521        C524   1.450       .  S
C522        C525   1.450       .  S
C523        N530   1.158       .  T
C524        N529   1.157       .  T
C525        N527   1.157       .  T
C526        N528   1.157       .  T
C531        C532   1.411       .  A
C531       C1304   1.410       .  A
C532       C1301   1.420       .  A
C532        C537   1.451       .  S
C533        C534   1.428   1_565  A
C533       C1300   1.422       .  A
C533        C540   1.450   1_565  S
C534        C535   1.429       .  A
C535        C536   1.415   1_545  A
C535        C538   1.453       .  S
C536       C1299   1.409       .  A
C536        C539   1.451       .  S
C537        N544   1.157       .  T
C538        N543   1.158       .  T
C539        N541   1.156       .  T
C540        N542   1.158       .  T
C545        C546   1.428       .  A
C545        C550   1.424       .  A
C546        C547   1.413       .  A
C546        C551   1.454       .  S
C547        C548   1.416       .  A
C547        C554   1.454       .  S
C548        C549   1.416       .  A
C549        C550   1.419       .  A
C549        C552   1.452       .  S
C550        C553   1.452       .  S
C551       N1326   1.158       .  T
C552        N557   1.157       .  T
C553        N555   1.158       .  T
C554        N556   1.158       .  T
N558       C1319   1.158       .  T
C559        C564   1.418       .  A
C559       C1328   1.427       .  A
C560        C561   1.414       .  A
C560       C1327   1.422   1_545  A
C560        C565   1.451       .  S
C561        C562   1.407       .  A
C561        C568   1.450       .  S
C562        C563   1.410   1_545  A
C563       C1332   1.411       .  A
C563       C1334   1.453       .  S
C564       C1331   1.412       .  A
C564        C567   1.448       .  S
C565        N572   1.157       .  T
C566       C1331   1.453       .  S
C566        N571   1.157       .  T
C567        N569   1.156       .  T
C568        N570   1.157       .  T
C573        C574   1.416       .  A
C573        C578   1.410       .  A
C574        C575   1.411       .  A
C574        C579   1.451       .  S
C575        C576   1.414       .  A
C575        C582   1.451       .  S
C576        C577   1.418       .  A
C577        C578   1.404       .  A
C577       C2116   1.453       .  S
C578        C581   1.454       .  S
C579        N586   1.157       .  T
C580       C2113   1.451       .  S
C580        N585   1.157       .  T
C581        N583   1.157       .  T
C582        N584   1.157       .  T
C587        C588   1.427       .  A
C587        C592   1.413       .  A
C588        C589   1.412       .  A
C588        C593   1.452       .  S
C589        C590   1.406       .  A
C589        C596   1.451       .  S
C590        C591   1.417       .  A
C591        C592   1.408       .  A
C591        C594   1.452       .  S
C592        C595   1.451       .  S
C593        N600   1.157       .  T
C594        N599   1.157       .  T
C595        N597   1.158       .  T
C596        N598   1.157       .  T
C601        C602   1.418       .  A
C601        C606   1.428       .  A
C602        C603   1.408       .  A
C602        C607   1.454       .  S
C603        C604   1.419       .  A
C603        C610   1.454       .  S
C604        C605   1.408       .  A
C605        C606   1.419       .  A
C605        C608   1.450       .  S
C606        C609   1.451       .  S
C607        N614   1.158       .  T
C608        N613   1.157       .  T
C609        N611   1.158       .  T
C610        N612   1.157       .  T
C615        C616   1.404       .  A
C615        C620   1.408       .  A
C616       C1385   1.403       .  A
C616        C621   1.450       .  S
C617        C618   1.418       .  A
C617       C1384   1.403       .  A
C617        C624   1.450       .  S
C618       C1387   1.419       .  A
C619        C620   1.410       .  A
C619       C1386   1.414       .  A
C619        C622   1.450       .  S
C620        C623   1.449   1_565  S
C621        N628   1.157       .  T
C622        N627   1.157       .  T
C623        N625   1.157       .  T
C624        N626   1.156       .  T
C629        C634   1.405       .  A
C629       C1398   1.409       .  A
C630        C631   1.412       .  A
C630       C1397   1.409       .  A
C630        C635   1.450       .  S
C631        C632   1.418       .  A
C631        C638   1.452       .  S
C632       C1401   1.422       .  A
C633        C634   1.413       .  A
C633       C1400   1.423       .  A
C633        C636   1.450       .  S
C634        C637   1.450       .  S
C635        N642   1.156       .  T
C636        N641   1.158       .  T
C637        N639   1.157       .  T
C638        N640   1.157       .  T
C643        C810   1.504   1_545  S
C643        C644   1.412       .  A
C643        C648   1.419       .  A
C644        C645   1.422       .  A
C644        C649   1.450       .  S
C645        C646   1.427       .  A
C645        C652   1.449       .  S
C646        C647   1.417       .  A
C647        C648   1.410       .  A
C647        C650   1.449       .  S
C648       C1419   1.455   1_545  S
C649       N1424   1.157       .  T
C650        N655   1.156       .  T
C651       C1416   1.455       .  S
C651        N653   1.158       .  T
C652        N654   1.157       .  T
N656       C1417   1.157       .  T
C657        C658   1.421       .  A
C657        C662   1.429       .  A
C658        C659   1.416       .  A
C658        C663   1.449       .  S
C659        C660   1.407       .  A
C659        C666   1.449       .  S
C660        C661   1.405       .  A
C661        C662   1.412       .  A
C661        C664   1.452       .  S
C662        C665   1.453       .  S
C663        N670   1.157       .  T
C664        N669   1.157       .  T
C665        N667   1.157       .  T
C666        N668   1.157       .  T
C671        C672   1.420       .  A
C671        C676   1.423       .  A
C672        C673   1.411       .  A
C672        C677   1.452       .  S
C673        C674   1.408       .  A
C673        C680   1.450       .  S
C674        C675   1.407       .  A
C675        C676   1.415       .  A
C675        C678   1.450       .  S
C676        C679   1.451       .  S
C677        N684   1.157       .  T
C678        N683   1.157       .  T
C679        N681   1.158       .  T
C680        N682   1.156   1_556  T
C685        C686   1.405       .  A
C685        C690   1.405       .  A
C686       C2223   1.417       .  A
C686        C691   1.450       .  S
C687        C688   1.426       .  A
C687       C2222   1.416       .  A
C687        C694   1.450       .  S
C688       C2225   1.430       .  A
C689        C690   1.414       .  A
C689       C2224   1.430       .  A
C689       C2228   1.452       .  S
C690        C693   1.453       .  S
C691        N698   1.156       .  T
C692       C2225   1.452   1_455  S
C692        N697   1.158       .  T
C693        N695   1.157       .  T
C694        N696   1.157       .  T
C699        C700   1.409       .  A
C699        C704   1.410       .  A
C700        C701   1.412       .  A
C700        C705   1.454       .  S
C701        C702   1.421       .  A
C701        C708   1.449       .  S
C702        C703   1.418       .  A
C703        C704   1.415       .  A
C703        C706   1.450       .  S
C704        C707   1.450       .  S
C705        N712   1.157       .  T
C706        N711   1.157       .  T
C707        N709   1.157       .  T
C708        N710   1.157       .  T
C713        C714   1.415       .  A
C713        C718   1.422       .  A
C714        C715   1.410       .  A
C714        C719   1.450       .  S
C715        C716   1.416       .  A
C715        C722   1.453       .  S
C716        C717   1.411       .  A
C717        C718   1.413       .  A
C717       C2256   1.452       .  S
C718        C721   1.452       .  S
C719       N1494   1.157       .  T
C720       C2253   1.452       .  S
C720        N725   1.157       .  T
C721        N723   1.157   1_545  T
C722        N724   1.157       .  T
N726       C1487   1.157       .  T
C727        C728   1.411       .  A
C727        C732   1.405       .  A
C728        C729   1.403       .  A
C728        C733   1.451       .  S
C729        C730   1.412       .  A
C729        C736   1.451       .  S
C730        C731   1.424       .  A
C731        C732   1.411       .  A
C731        C734   1.450       .  S
C732        C735   1.452       .  S
C733        N740   1.157       .  T
C734        N739   1.157       .  T
C735        N737   1.157       .  T
C736        N738   1.156       .  T
C741       C1556   1.479       .  S
C741        C742   1.412       .  A
C741        C746   1.406       .  A
C742        C743   1.412       .  A
C742        C747   1.450       .  S
C743        C744   1.420       .  A
C743        C750   1.451       .  S
C744        C745   1.423       .  A
C745        C746   1.411       .  A
C745        C748   1.448   1_556  S
C746        C749   1.454       .  S
C747       N2290   1.156       .  T
C748        N753   1.156       .  T
C749        N751   1.158       .  T
C750        N752   1.158       .  T
N754       C2283   1.157       .  T
C755        C756   1.432       .  A
C755        C760   1.417       .  A
C756        C757   1.414       .  A
C756        C761   1.451       .  S
C757        C758   1.403       .  A
C757        C764   1.452       .  S
C758        C759   1.413       .  A
C759        C760   1.411       .  A
C759        C762   1.449       .  S
C760        C763   1.452       .  S
C761        N768   1.158       .  T
C762        N767   1.156       .  T
C763        N765   1.158   1_554  T
C764        N766   1.157       .  T
O769       Al777   1.916   1_655  S
O769       C2320   1.261       .  A
C770        O780   1.269       .  A
C770        O771   1.257       .  A
C770       C1498   1.487       .  S
O771       Al773   1.883       .  S
O772       Al773   1.903       .  S
O772        C774   1.264       .  A
Al773       O781   1.911   1_455  S
Al773      O2319   1.861   1_455  S
Al773       O782   1.786       .  S
C774        O787   1.264       .  A
C774       C1467   1.486       .  S
O775       Al777   1.914       .  S
O775        C785   1.259   1_556  A
O776       Al786   1.915   1_554  S
O776        C789   1.270       .  A
Al777       O790   1.924   1_556  S
Al777       O787   1.915       .  S
Al777       O782   1.781       .  S
O778       Al786   1.886   1_554  S
O778        C785   1.249       .  A
O779       Al786   1.893       .  S
O779        C788   1.254   1_455  A
O780       Al786   1.917       .  S
O781        C788   1.261       .  A
O782       Al786   1.790       .  S
O783      Al2309   1.868       .  S
O783        C784   1.250       .  A
C784       O2305   1.260       .  A
C784       C1484   1.487       .  S
C785       C1523   1.508       .  S
C788       C3045   1.473       .  S
C789        O790   1.270       .  A
C789       C1456   1.519   1_455  S
O791       Al799   1.940       .  S
C792        O802   1.269       .  A
C792        O793   1.254       .  A
C792       C1495   1.479       .  S
O793       Al795   1.855       .  S
O794       Al795   1.941       .  S
O794        C796   1.268       .  A
Al795       O803   1.964       .  S
Al795       O804   1.783       .  S
C796        O809   1.264       .  A
C796       C1439   1.510       .  S
O797       Al799   1.950       .  S
O797        C807   1.267       .  A
O798       Al808   1.932       .  S
O798        C811   1.267       .  A
Al799       O812   1.894       .  S
Al799       O809   1.903       .  S
Al799       O804   1.777       .  S
O800       Al808   1.858       .  S
O800        C807   1.251       .  A
O801       Al808   1.862       .  S
O801        C810   1.251       .  A
O802       Al808   1.940       .  S
O803        C810   1.267       .  A
O804       Al808   1.772       .  S
O805        C806   1.263       .  A
C806       C1481   1.508       .  S
C807       C1425   1.507       .  S
C811        O812   1.262       .  A
C811       C1397   1.482   1_565  S
O813       Al821   1.938       .  S
O813        C828   1.267       .  A
C814        O824   1.271       .  A
C814        O815   1.254       .  A
C814       C1358   1.486       .  S
O815       Al817   1.853       .  S
O816       Al817   1.943       .  S
O816        C818   1.269       .  A
Al817       O825   1.952       .  S
Al817       O827   1.859       .  S
Al817       O826   1.777       .  S
C818        O831   1.261       .  A
C818       C1327   1.498       .  S
O819       Al821   1.928       .  S
O819        C829   1.264       .  A
O820       Al830   1.951       .  S
O820        C833   1.272       .  A
Al821       O834   1.894       .  S
Al821       O831   1.895       .  S
Al821       O826   1.779       .  S
O822       Al830   1.866       .  S
O822        C829   1.254       .  A
O823       Al830   1.864       .  S
O823        C832   1.253       .  A
O824       Al830   1.955       .  S
O825        C832   1.266       .  A
O826       Al830   1.768       .  S
O827        C828   1.257       .  A
C828       C1341   1.472       .  S
C829       C1386   1.478       .  S
C832       C1372   1.480       .  S
C833        O834   1.262       .  A
C833       C1313   1.523       .  S
O835       Al843   1.908   1_655  S
O835       C2386   1.255       .  A
C836        O846   1.265       .  A
C836        O837   1.249       .  A
C836       C1355   1.492       .  S
O837       Al839   1.882       .  S
O838       Al839   1.917       .  S
O838        C840   1.270       .  A
Al839       O847   1.912   1_455  S
Al839      O2385   1.869   1_455  S
Al839       O848   1.786       .  S
C840        O853   1.272       .  A
C840       C1299   1.496       .  S
O841       Al843   1.889       .  S
O841        C851   1.258       .  A
O842       Al852   1.933       .  S
O842        C855   1.268       .  A
Al843       O856   1.895       .  S
Al843       O853   1.939       .  S
Al843       O848   1.782       .  S
O844       Al852   1.885       .  S
O844        C851   1.255       .  A
O845       Al852   1.906       .  S
O845        C854   1.264   1_455  A
O846       Al852   1.932       .  S
O847        C854   1.269       .  A
O848       Al852   1.787       .  S
O849      Al2375   1.866       .  S
O849        C850   1.252       .  A
C850       O2371   1.258       .  A
C850       C1344   1.480       .  S
C851       C1285   1.499       .  S
C854       C2810   1.476       .  S
C855        O856   1.262       .  A
C855       C1260   1.510   1_455  S
O857       Al865   1.941       .  S
O857        C872   1.266       .  A
C858        O868   1.267       .  A
C858        O859   1.253       .  A
C858       C1243   1.494       .  S
O859       Al861   1.858       .  S
O860       Al861   1.943       .  S
O860        C862   1.269       .  A
Al861       O869   1.957       .  S
Al861       O871   1.877       .  S
Al861       O870   1.773       .  S
C862        O875   1.264       .  A
C862       C1453   1.490       .  S
O863       Al865   1.948       .  S
O863        C873   1.270       .  A
O864       Al874   1.937       .  S
O864        C877   1.266       .  A
Al865       O878   1.899       .  S
Al865       O875   1.905       .  S
Al865       O870   1.776       .  S
O866       Al874   1.873       .  S
O866        C873   1.257       .  A
O867       Al874   1.859       .  S
O867        C876   1.254       .  A
O868       Al874   1.944       .  S
O869        C876   1.269       .  A
O870       Al874   1.779       .  S
O871        C872   1.256       .  A
C873       C1271   1.504       .  S
C876       C1288   1.484       .  S
C877        O878   1.263       .  A
C877       C1330   1.486       .  S
O879       Al887   1.932       .  S
O879        C894   1.264       .  A
C880        O890   1.266       .  A
C880        O881   1.253       .  A
C880       C1246   1.493       .  S
O881       Al883   1.855       .  S
O882       Al883   1.951       .  S
O882        C884   1.270       .  A
Al883       O891   1.950       .  S
Al883       O893   1.882       .  S
Al883       O892   1.777       .  S
C884        O897   1.261       .  A
C884       C1257   1.491       .  S
O885       Al887   1.926       .  S
O885        C895   1.264       .  A
O886       Al896   1.944   1_556  S
O886        C899   1.268       .  A
Al887       O900   1.886       .  S
Al887       O897   1.898       .  S
Al887       O892   1.780       .  S
O888       Al896   1.881       .  S
O888        C895   1.257       .  A
O889       Al896   1.868       .  S
O889        C898   1.255       .  A
O890       Al896   1.939       .  S
O891        C898   1.268       .  A
O892       Al896   1.785       .  S
O893        C894   1.257       .  A
C894       C1229   1.479       .  S
C895       C1512   1.500   1_554  S
C898       C1526   1.484       .  S
C899        O900   1.262   1_556  A
C899       C1442   1.485       .  S
O901       Al909   1.904       .  S
O901        C916   1.260       .  A
C902        O912   1.263       .  A
C902        O903   1.261       .  A
C902       C1215   1.471       .  S
O903       Al905   1.905       .  S
O904       Al905   1.912       .  S
O904        C906   1.267       .  A
Al905       O913   1.920       .  S
Al905       O915   1.890       .  S
Al905       O914   1.787       .  S
C906        O919   1.265       .  A
C906       C1190   1.524       .  S
O907       Al909   1.912       .  S
O907        C917   1.261       .  A
O908       Al918   1.915       .  S
O908        C921   1.268       .  A
Al909       O922   1.929       .  S
Al909       O919   1.923       .  S
Al909       O914   1.777       .  S
O910       Al918   1.900       .  S
O910        C917   1.255       .  A
O911       Al918   1.907       .  S
O911        C920   1.258       .  A
O912       Al918   1.910       .  S
O913        C920   1.264       .  A
O914       Al918   1.793       .  S
O915        C916   1.254       .  A
C916       C1201   1.498       .  S
C917       C1414   1.507       .  S
C920       C1428   1.481       .  S
C921        O922   1.269       .  A
C921       C1470   1.502       .  S
O923       Al931   1.946       .  S
O923        C938   1.266       .  A
C924        O934   1.268       .  A
C924        O925   1.252       .  A
C924       C1218   1.467       .  S
O925       Al927   1.846       .  S
O926       Al927   1.948       .  S
O926        C928   1.272       .  A
Al927       O935   1.936       .  S
Al927       O937   1.883       .  S
Al927       O936   1.790       .  S
C928        O941   1.264       .  A
C928       C1400   1.500       .  S
O929       Al931   1.940       .  S
O929        C939   1.261       .  A
O930       Al940   1.939       .  S
O930        C943   1.272       .  A
Al931       O944   1.883       .  S
Al931       O941   1.897       .  S
Al931       O936   1.794       .  S
O932       Al940   1.886       .  S
O932        C939   1.251       .  A
O933       Al940   1.878       .  S
O933        C942   1.253       .  A
O934       Al940   1.931       .  S
O935        C942   1.261       .  A
O936       Al940   1.784       .  S
O937        C938   1.256       .  A
C938       C2740   1.492       .  S
C939       C1173   1.504       .  S
C942       C1162   1.504       .  S
C943        O944   1.264       .  A
C943       C1145   1.479       .  S
O945       Al953   1.901       .  S
O945        C960   1.257       .  A
C946        O956   1.272       .  A
C946        O947   1.250       .  A
C946       C1103   1.510       .  S
O947       Al949   1.844       .  S
O948       Al949   1.944       .  S
O948        C950   1.273       .  A
Al949       O957   1.937       .  S
Al949       O959   1.888       .  S
Al949       O958   1.784       .  S
C950        O963   1.272       .  A
C950       C1316   1.513       .  S
O951       Al953   1.914       .  S
O951        C961   1.255       .  A
O952       Al962   1.962       .  S
O952        C965   1.276       .  A
Al953       O966   1.892       .  S
Al953       O963   1.921       .  S
Al953       O958   1.793       .  S
O954       Al962   1.879       .  S
O954        C961   1.251       .  A
O955       Al962   1.862       .  S
O955        C964   1.251       .  A
O956       Al962   1.953       .  S
O957        C964   1.263       .  A
O958       Al962   1.778       .  S
O959        C960   1.257       .  A
C960       C2625   1.485       .  S
C961       C1134   1.488       .  S
C964       C1117   1.505       .  S
C965        O966   1.265       .  A
C965       C1075   1.492       .  S
O967       Al975   1.929       .  S
O967        C982   1.264       .  A
C968        O978   1.270       .  A
C968        O969   1.253       .  A
C968       C1106   1.487       .  S
O969       Al971   1.852       .  S
O970       Al971   1.932       .  S
O970        C972   1.268       .  A
Al971       O979   1.922       .  S
Al971       O981   1.871       .  S
Al971       O980   1.777       .  S
C972        O985   1.267       .  A
C972       C1061   1.496       .  S
O973       Al975   1.932       .  S
O973        C983   1.266       .  A
O974       Al984   1.954       .  S
O974        C987   1.271       .  A
Al975       O988   1.899       .  S
Al975       O985   1.914       .  S
Al975       O980   1.778       .  S
O976       Al984   1.875       .  S
O976        C983   1.255       .  A
O977       Al984   1.853       .  S
O977        C986   1.251       .  A
O978       Al984   1.951       .  S
O979        C986   1.260       .  A
O980       Al984   1.778       .  S
O981        C982   1.253       .  A
C983       C1369   1.488       .  S
C986       C1383   1.466       .  S
C987        O988   1.264       .  A
C987       C1302   1.510       .  S
O989       Al997   1.933       .  S
C990       O1000   1.266       .  A
C990        O991   1.249       .  A
C990       C1047   1.463       .  S
O991       Al993   1.833       .  S
O992       Al993   1.957       .  S
O992        C994   1.273       .  A
Al993      O1001   1.959       .  S
Al993      O1002   1.781       .  S
C994       O1007   1.264       .  A
C994       C1078   1.500       .  S
O995       Al997   1.954       .  S
O995       C1005   1.267       .  A
O996      Al1006   1.940       .  S
O996       C1009   1.269       .  A
Al997      O1010   1.892       .  S
Al997      O1007   1.897       .  S
Al997      O1002   1.780       .  S
O998      Al1006   1.877       .  S
O998       C1005   1.253       .  A
O999      Al1006   1.866       .  S
O999       C1008   1.253       .  A
O1000     Al1006   1.939       .  S
O1001      C1008   1.269       .  A
O1002     Al1006   1.778       .  S
O1003      C1004   1.254       .  A
C1004      C1033   1.471       .  S
C1005      C1159   1.498       .  S
C1009      O1010   1.262       .  A
C1009      C1187   1.485   1_565  S
O1011     Al1019   1.922       .  S
O1011      C1026   1.262       .  A
C1012      O1022   1.264       .  A
C1012      O1013   1.249       .  A
C1012      C1050   1.462       .  S
O1013     Al1015   1.835       .  S
O1014     Al1015   1.934       .  S
O1014      C1016   1.267       .  A
Al1015     O1023   1.923       .  S
Al1015     O1025   1.873       .  S
Al1015     O1024   1.788       .  S
C1016      O1029   1.263       .  A
C1016      C1148   1.497       .  S
O1017     Al1019   1.926       .  S
O1017      C1027   1.261       .  A
O1018     Al1028   1.939       .  S
O1018      C1031   1.269       .  A
Al1019     O1032   1.894       .  S
Al1019     O1029   1.900       .  S
Al1019     O1024   1.788       .  S
O1020     Al1028   1.880       .  S
O1020      C1027   1.254       .  A
O1021     Al1028   1.864       .  S
O1021      C1030   1.254       .  A
O1022     Al1028   1.934       .  S
O1023      C1030   1.261       .  A
O1024     Al1028   1.788       .  S
O1025      C1026   1.253       .  A
C1026      C1036   1.469       .  S
C1027      C2656   1.485       .  S
C1030      C1131   1.479       .  S
C1031      O1032   1.263       .  A
C1031      C1064   1.485       .  S
C1033      C1034   1.416       .  A
C1033      C1038   1.407       .  A
C1034      C1035   1.407       .  A
C1034      C1039   1.451       .  S
C1035      C1036   1.406       .  A
C1035      C1042   1.452       .  S
C1036      C1037   1.415       .  A
C1037      C1038   1.407       .  A
C1037      C1040   1.451       .  S
C1038      C1041   1.452       .  S
C1039      N1046   1.157       .  T
C1040      N1045   1.157       .  T
C1041      N1043   1.157       .  T
C1042      N1044   1.157       .  T
C1047      C1048   1.409       .  A
C1047      C1052   1.411       .  A
C1048      C1049   1.410       .  A
C1048      C1053   1.451       .  S
C1049      C1050   1.411       .  A
C1049      C1056   1.450       .  S
C1050      C1051   1.409       .  A
C1051      C1052   1.402       .  A
C1051      C1054   1.453       .  S
C1052      C1055   1.453       .  S
C1053      N1060   1.157       .  T
C1054      N1059   1.157       .  T
C1055      N1057   1.157       .  T
C1056      N1058   1.157       .  T
C1061      C1062   1.417       .  A
C1061      C1066   1.416       .  A
C1062      C1063   1.417       .  A
C1062      C1067   1.450       .  S
C1063      C1064   1.411       .  A
C1063      C1070   1.450       .  S
C1064      C1065   1.408       .  A
C1065      C1066   1.412       .  A
C1065      C1068   1.450       .  S
C1066      C1069   1.448       .  S
C1067      N1074   1.157       .  T
C1068      N1073   1.156       .  T
C1069      N1071   1.156       .  T
C1070      N1072   1.157       .  T
C1075      C1076   1.411       .  A
C1075      C1080   1.411       .  A
C1076      C2613   1.415       .  A
C1076      C2617   1.449       .  S
C1077      C2612   1.415       .  A
C1077      C1078   1.417       .  A
C1077      C1084   1.450       .  S
C1078      C2615   1.420   1_455  A
C1079      C2614   1.419       .  A
C1079      C1080   1.419       .  A
C1079      C1082   1.450       .  S
C1080      C1083   1.450       .  S
C1081      C2612   1.450       .  S
C1081      N1088   1.156       .  T
C1082      N1087   1.157       .  T
C1083      N1085   1.157       .  T
C1084      N1086   1.157       .  T
C1089      C2496   1.483   1_455  S
C1089      C2626   1.420       .  A
C1089      C1094   1.413       .  A
C1090      C2625   1.415       .  A
C1090      C2627   1.409       .  A
C1090      C1095   1.455       .  S
C1091      C2626   1.408       .  A
C1091      C1092   1.409       .  A
C1092      C1093   1.412       .  A
C1093      C1094   1.404       .  A
C1093      C1096   1.453       .  S
C1094      C1097   1.451       .  S
C1095      N1102   1.158       .  T
C1096      N1101   1.157       .  T
C1097      N1099   1.157       .  T
C1098      N1100   1.158       .  T
C1103      C1104   1.434       .  A
C1103      C1108   1.419       .  A
C1104      C1105   1.412       .  A
C1104      C1109   1.454       .  S
C1105      C1106   1.405       .  A
C1105      C1112   1.453       .  S
C1106      C1107   1.415       .  A
C1107      C1108   1.413       .  A
C1107      C1110   1.453       .  S
C1108      C1111   1.450       .  S
C1109      N1116   1.158       .  T
C1110      N1115   1.157       .  T
C1111      N1113   1.157       .  T
C1112      N1114   1.157       .  T
C1117      C2654   1.416       .  A
C1117      C1122   1.425       .  A
C1118      C2653   1.416   1_455  A
C1118      C1119   1.415       .  A
C1118      C1123   1.450       .  S
C1119      C2656   1.414       .  A
C1119      C1126   1.451       .  S
C1120      C2563   1.490       .  S
C1120      C2655   1.415       .  A
C1120      C1121   1.408       .  A
C1121      C1122   1.411       .  A
C1121      C1124   1.451       .  S
C1122      C1125   1.453       .  S
C1123      N1130   1.157       .  T
C1124      N1129   1.157       .  T
C1125      N1127   1.157       .  T
C1126      N1128   1.157       .  T
C1131      C1132   1.408       .  A
C1131      C1136   1.414       .  A
C1132      C1133   1.410       .  A
C1132      C1137   1.451       .  S
C1133      C1134   1.419       .  A
C1133      C1140   1.451       .  S
C1134      C1135   1.414       .  A
C1135      C1136   1.408       .  A
C1135      C1138   1.451       .  S
C1136      C1139   1.453       .  S
C1137      N1144   1.157       .  T
C1138      N1143   1.158       .  T
C1139      N1141   1.157       .  T
C1140      N1142   1.157       .  T
C1145      C1146   1.409       .  A
C1145      C1150   1.408       .  A
C1146      C1147   1.414       .  A
C1146      C1151   1.451       .  S
C1147      C2684   1.419       .  A
C1147      C1154   1.451       .  S
C1148      C2683   1.419   1_455  A
C1148      C1149   1.417       .  A
C1149      C2686   1.412       .  A
C1149      C1152   1.451       .  S
C1150      C2685   1.409       .  A
C1150      C2689   1.448       .  S
C1151      N1158   1.157       .  T
C1152      N1157   1.157       .  T
C1153      C2686   1.449       .  S
C1153      N1155   1.156       .  T
C1154      N1156   1.157       .  T
C1159      C1160   1.419       .  A
C1159      C2700   1.411   1_455  A
C1160      C1161   1.416       .  A
C1160      C1165   1.451       .  S
C1161      C2698   1.413   1_455  A
C1161      C1168   1.450       .  S
C1162      C2697   1.414       .  A
C1162      C1163   1.419       .  A
C1163      C1164   1.415       .  A
C1163      C1166   1.452       .  S
C1164      C2695   1.414       .  A
C1164      C1167   1.450       .  S
C1165      N1172   1.158       .  T
C1166      N1171   1.157       .  T
C1167      N1169   1.157       .  T
C1168      N1170   1.157       .  T
C1173      C1174   1.412       .  A
C1173      C1178   1.421       .  A
C1174      C1175   1.412       .  A
C1174      C1179   1.444       .  S
C1175      C1176   1.416       .  A
C1176      C1177   1.412       .  A
C1177      C1178   1.421       .  A
C1177      C1180   1.449       .  S
C1178      C1181   1.450       .  S
C1179      N1186   1.154       .  T
C1180      N1185   1.157       .  T
C1181      N1183   1.157       .  T
C1182      N1184   1.158       .  T
C1187      C1192   1.403       .  A
C1188      C1189   1.417       .  A
C1188      C1193   1.453       .  S
C1189      C1190   1.429       .  A
C1189      C1196   1.452       .  S
C1191      C1192   1.416       .  A
C1191      C1194   1.451       .  S
C1192      C1195   1.453   1_545  S
C1193      N1200   1.157       .  T
C1194      N1199   1.158       .  T
C1195      N1197   1.157       .  T
C1196      N1198   1.158       .  T
C1201      C1202   1.416       .  A
C1201      C1206   1.420       .  A
C1202      C2739   1.410       .  A
C1202      C1207   1.453       .  S
C1203      C2738   1.411       .  A
C1203      C2740   1.416       .  A
C1203      C1210   1.447       .  S
C1204      C2474   1.493   1_455  S
C1204      C2739   1.414       .  A
C1204      C1205   1.413       .  A
C1205      C1206   1.415       .  A
C1205      C1208   1.449       .  S
C1206      C1209   1.452       .  S
C1207      N2750   1.157       .  T
C1208      N1213   1.157       .  T
C1209      N1211   1.158       .  T
C1210      N1212   1.155       .  T
N1214      C2743   1.157       .  T
C1215      C1216   1.410       .  A
C1215      C1220   1.407       .  A
C1216      C1217   1.406       .  A
C1216      C1221   1.447       .  S
C1217      C1218   1.408       .  A
C1217      C1224   1.452       .  S
C1218      C1219   1.413       .  A
C1219      C1220   1.410       .  A
C1219      C1222   1.451       .  S
C1220      C1223   1.449       .  S
C1221      N1228   1.156       .  T
C1222      N1227   1.157       .  T
C1223      N1225   1.157       .  T
C1224      N1226   1.157       .  T
C1229      C1230   1.408       .  A
C1229      C1234   1.416       .  A
C1230      C1231   1.409       .  A
C1230      C1235   1.450       .  S
C1231      C1232   1.415       .  A
C1232      C1233   1.407       .  A
C1233      C1234   1.410       .  A
C1233      C1236   1.450       .  S
C1234      C1237   1.451       .  S
C1235      N1242   1.157       .  T
C1236      N1241   1.157       .  T
C1237      N1239   1.157       .  T
C1238      N1240   1.157       .  T
C1243      C1244   1.423       .  A
C1243      C1248   1.413       .  A
C1244      C1245   1.408       .  A
C1244      C1249   1.454       .  S
C1245      C1246   1.411       .  A
C1245      C1252   1.451       .  S
C1246      C1247   1.421       .  A
C1247      C1248   1.409       .  A
C1247      C1250   1.454       .  S
C1248      C1251   1.451       .  S
C1249      N1256   1.157       .  T
C1250      N1255   1.157       .  T
C1251      N1253   1.158       .  T
C1252      N1254   1.158       .  T
C1257      C1258   1.407       .  A
C1257      C1262   1.404       .  A
C1258      C2795   1.422       .  A
C1258      C1263   1.450       .  S
C1259      C2794   1.418       .  A
C1259      C1260   1.420       .  A
C1259      C1266   1.448       .  S
C1260      C2797   1.424       .  A
C1261      C2796   1.435       .  A
C1261      C1262   1.415       .  A
C1261      C1264   1.452       .  S
C1262      C1265   1.453       .  S
C1263      N1270   1.156       .  T
C1264      N1269   1.158       .  T
C1265      N1267   1.157       .  T
C1266      N1268   1.157       .  T
C1271      C1272   1.422       .  A
C1271      C1276   1.425       .  A
C1272      C2809   1.414       .  A
C1272      C1277   1.451       .  S
C1273      C2808   1.413       .  A
C1273      C2810   1.409       .  A
C1273      C1280   1.453   1_655  S
C1274      C2390   1.476       .  S
C1274      C2809   1.410       .  A
C1274      C1275   1.404       .  A
C1275      C1276   1.409       .  A
C1275      C1278   1.454       .  S
C1276      C1279   1.449       .  S
C1277      N1284   1.158       .  T
C1278      N1283   1.157       .  T
C1279      N1281   1.156       .  T
C1280      N1282   1.157       .  T
C1285      C1290   1.425       .  A
C1286      C1287   1.406       .  A
C1286      C1291   1.453       .  S
C1287      C1288   1.417       .  A
C1287      C1294   1.452       .  S
C1289      C1290   1.414       .  A
C1289      C1292   1.451       .  S
C1290      C1293   1.452       .  S
C1291      N1298   1.157       .  T
C1292      N1297   1.157       .  T
C1293      N1295   1.158       .  T
C1294      N1296   1.157       .  T
C1299      C1300   1.410       .  A
C1300      C1305   1.451       .  S
C1301      C1302   1.423       .  A
C1301      C1308   1.450       .  S
C1302      C1303   1.421       .  A
C1303      C1304   1.415       .  A
C1303      C1306   1.451       .  S
C1304      C1307   1.451       .  S
C1305      N1312   1.157       .  T
C1306      N1311   1.157       .  T
C1307      N1309   1.157       .  T
C1308      N1310   1.158       .  T
C1313      C1314   1.426       .  A
C1313      C1318   1.423       .  A
C1314      C1315   1.418       .  A
C1314      C1319   1.453       .  S
C1315      C1316   1.419       .  A
C1315      C1322   1.453       .  S
C1316      C1317   1.417       .  A
C1317      C1318   1.421       .  A
C1317      C1320   1.450       .  S
C1318      C1321   1.452       .  S
C1320      N1325   1.157       .  T
C1321      N1323   1.158       .  T
C1322      N1324   1.158       .  T
C1327      C1332   1.417       .  A
C1328      C1329   1.417       .  A
C1328      C1333   1.451       .  S
C1329      C1330   1.408       .  A
C1329      C1336   1.451       .  S
C1330      C1331   1.410       .  A
C1332      C1335   1.449       .  S
C1333      N1340   1.158       .  T
C1334      N1339   1.157       .  T
C1335      N1337   1.157       .  T
C1336      N1338   1.157       .  T
C1341      C1342   1.413       .  A
C1341      C1346   1.406       .  A
C1342      C1343   1.410       .  A
C1342      C1347   1.450       .  S
C1343      C1344   1.415       .  A
C1343      C1350   1.451       .  S
C1344      C1345   1.417       .  A
C1345      C1346   1.400       .  A
C1345      C2884   1.453       .  S
C1346      C1349   1.453       .  S
C1347      N1354   1.157       .  T
C1348      C2881   1.453       .  S
C1348      N1353   1.157       .  T
C1349      N1351   1.157       .  T
C1350      N1352   1.157       .  T
C1355      C1356   1.427       .  A
C1355      C1360   1.410       .  A
C1356      C1357   1.410       .  A
C1356      C1361   1.452       .  S
C1357      C1358   1.406       .  A
C1357      C1364   1.453       .  S
C1358      C1359   1.417       .  A
C1359      C1360   1.409       .  A
C1359      C1362   1.452       .  S
C1360      C1363   1.451       .  S
C1361      N1368   1.158       .  T
C1362      N1367   1.157       .  T
C1363      N1365   1.157       .  T
C1364      N1366   1.157       .  T
C1369      C1370   1.412       .  A
C1369      C1374   1.421       .  A
C1370      C1371   1.405       .  A
C1370      C1375   1.452       .  S
C1371      C1372   1.414       .  A
C1371      C1378   1.452       .  S
C1372      C1373   1.407       .  A
C1373      C1374   1.414       .  A
C1373      C1376   1.449       .  S
C1374      C1377   1.451       .  S
C1375      N1382   1.157       .  T
C1376      N1381   1.157       .  T
C1377      N1379   1.157       .  T
C1378      N1380   1.157       .  T
C1383      C1384   1.406       .  A
C1383      C1388   1.406       .  A
C1384      C1389   1.455       .  S
C1385      C1386   1.414       .  A
C1385      C1392   1.450       .  S
C1387      C1388   1.409       .  A
C1387      C1390   1.451       .  S
C1388      C1391   1.450       .  S
C1389      N1396   1.157       .  T
C1390      N1395   1.157       .  T
C1391      N1393   1.157       .  T
C1392      N1394   1.157       .  T
C1397      C1402   1.406       .  A
C1398      C1399   1.411       .  A
C1398      C1403   1.451       .  S
C1399      C1400   1.420       .  A
C1399      C1406   1.452       .  S
C1401      C1402   1.413       .  A
C1401      C1404   1.452       .  S
C1402      C1405   1.449   1_545  S
C1403      N1410   1.156       .  T
C1404      N1409   1.158       .  T
C1405      N1407   1.157       .  T
C1406      N1408   1.157       .  T
C1411      C1412   1.414       .  A
C1411      C1416   1.425       .  A
C1412      C1413   1.420       .  A
C1412      C1417   1.450       .  S
C1413      C1414   1.423       .  A
C1413      C1420   1.450       .  S
C1414      C1415   1.414       .  A
C1415      C1416   1.411       .  A
C1415      C1418   1.450       .  S
C1418      N1423   1.156       .  T
C1419      N1421   1.158       .  T
C1420      N1422   1.157       .  T
C1425      C1426   1.421       .  A
C1425      C1430   1.427       .  A
C1426      C1427   1.417       .  A
C1426      C1431   1.450       .  S
C1427      C1428   1.410       .  A
C1427      C1434   1.449       .  S
C1428      C1429   1.404       .  A
C1429      C1430   1.410       .  A
C1429      C1432   1.453       .  S
C1430      C1433   1.453       .  S
C1431      N1438   1.158       .  T
C1432      N1437   1.157       .  T
C1433      N1435   1.157       .  T
C1434      N1436   1.157       .  T
C1439      C1440   1.425       .  A
C1439      C1444   1.426       .  A
C1440      C1441   1.410       .  A
C1440      C1445   1.452       .  S
C1441      C1442   1.407       .  A
C1441      C1448   1.452       .  S
C1442      C1443   1.408       .  A
C1443      C1444   1.417       .  A
C1443      C1446   1.451       .  S
C1444      C1447   1.451       .  S
C1445      N1452   1.157       .  T
C1446      N1451   1.157       .  T
C1447      N1449   1.158       .  T
C1448      N1450   1.157   1_556  T
C1453      C1454   1.407       .  A
C1453      C1458   1.405       .  A
C1454      C2991   1.420       .  A
C1454      C1459   1.449       .  S
C1455      C2990   1.416       .  A
C1455      C1456   1.427       .  A
C1455      C1462   1.450       .  S
C1456      C2993   1.430       .  A
C1457      C2992   1.431       .  A
C1457      C1458   1.415       .  A
C1457      C2996   1.452       .  S
C1458      C1461   1.452       .  S
C1459      N1466   1.156       .  T
C1460      C2993   1.452       .  S
C1460      N1465   1.158   1_655  T
C1461      N1463   1.157       .  T
C1462      N1464   1.157       .  T
C1467      C1468   1.407       .  A
C1467      C1472   1.411       .  A
C1468      C1469   1.411       .  A
C1468      C1473   1.454       .  S
C1469      C1470   1.420       .  A
C1469      C1476   1.447       .  S
C1470      C1471   1.419       .  A
C1471      C1472   1.418       .  A
C1471      C1474   1.450       .  S
C1472      C1475   1.450       .  S
C1473      N1480   1.157       .  T
C1474      N1479   1.157       .  T
C1475      N1477   1.157       .  T
C1476      N1478   1.156       .  T
C1481      C1482   1.422       .  A
C1481      C1486   1.425       .  A
C1482      C1483   1.410       .  A
C1482      C1487   1.451       .  S
C1483      C1484   1.411       .  A
C1483      C1490   1.453       .  S
C1484      C1485   1.411       .  A
C1485      C1486   1.416       .  A
C1485      C3024   1.453       .  S
C1486      C1489   1.451       .  S
C1488      C3021   1.452       .  S
C1488      N1493   1.157   1_655  T
C1489      N1491   1.158       .  T
C1490      N1492   1.157       .  T
C1495      C1496   1.413       .  A
C1495      C1500   1.406       .  A
C1496      C1497   1.405       .  A
C1496      C1501   1.450       .  S
C1497      C1498   1.412       .  A
C1497      C1504   1.452       .  S
C1498      C1499   1.425       .  A
C1499      C1500   1.409       .  A
C1499      C1502   1.451       .  S
C1500      C1503   1.451       .  S
C1501      N1508   1.156       .  T
C1502      N1507   1.157       .  T
C1503      N1505   1.157       .  T
C1504      N1506   1.157       .  T
C1509      C2324   1.475       .  S
C1509      C1510   1.411       .  A
C1509      C1514   1.406       .  A
C1510      C1511   1.411       .  A
C1510      C1515   1.450       .  S
C1511      C1512   1.420       .  A
C1511      C1518   1.452       .  S
C1512      C1513   1.422       .  A
C1513      C1514   1.409       .  A
C1513      C1516   1.448   1_556  S
C1514      C1517   1.454       .  S
C1515      N3058   1.156       .  T
C1516      N1521   1.156       .  T
C1517      N1519   1.157       .  T
C1518      N1520   1.158       .  T
N1522      C3051   1.157       .  T
C1523      C1524   1.431       .  A
C1523      C1528   1.417       .  A
C1524      C1525   1.415       .  A
C1524      C1529   1.451       .  S
C1525      C1526   1.404       .  A
C1525      C1532   1.451       .  S
C1526      C1527   1.412       .  A
C1527      C1528   1.410       .  A
C1527      C1530   1.449       .  S
C1528      C1531   1.453       .  S
C1529      N1536   1.158       .  T
C1530      N1535   1.156       .  T
C1531      N1533   1.158   1_554  T
C1532      N1534   1.157       .  T
O1537     Al1545   1.915       .  S
C1538      O1548   1.269       .  A
C1538      O1539   1.257       .  A
C1538      C2266   1.492       .  S
O1539     Al1541   1.889       .  S
O1540     Al1541   1.909       .  S
O1540      C1542   1.266       .  A
Al1541     O1549   1.918       .  S
Al1541     O1550   1.786       .  S
C1542      O1555   1.267       .  A
C1542      C2235   1.490       .  S
O1543     Al1545   1.909       .  S
O1543      C1553   1.259   1_556  A
O1544     Al1554   1.917   1_554  S
O1544      C1557   1.269       .  A
Al1545     O1558   1.918   1_556  S
Al1545     O1555   1.925       .  S
Al1545     O1550   1.782       .  S
O1546     Al1554   1.889   1_554  S
O1546      C1553   1.251       .  A
O1547     Al1554   1.897       .  S
O1547      C1556   1.257       .  A
O1548     Al1554   1.921       .  S
O1549      C1556   1.263       .  A
O1550     Al1554   1.789       .  S
O1551      C1552   1.252       .  A
C1552      C2252   1.492       .  S
C1553      C2291   1.513       .  S
C1557      O1558   1.268       .  A
C1557      C2224   1.519       .  S
O1559     Al1567   1.931       .  S
O1559      C2342   1.269       .  A
C1560      O1570   1.273       .  A
C1560      O1561   1.255       .  A
C1560      C2263   1.483       .  S
O1561     Al1563   1.852       .  S
O1562     Al1563   1.938       .  S
O1562      C1564   1.266       .  A
Al1563     O1571   1.958       .  S
Al1563     O2341   1.882       .  S
Al1563     O1572   1.786       .  S
C1564      O1577   1.264       .  A
C1564      C2207   1.511       .  S
O1565     Al1567   1.937       .  S
O1565      C1575   1.265       .  A
O1566     Al1576   1.942       .  S
O1566      C1579   1.268       .  A
Al1567     O1580   1.900       .  S
Al1567     O1577   1.912       .  S
Al1567     O1572   1.775       .  S
O1568     Al1576   1.853       .  S
O1568      C1575   1.249       .  A
O1569     Al1576   1.860       .  S
O1569      C1578   1.249       .  A
O1570     Al1576   1.956       .  S
O1571      C1578   1.265       .  A
O1572     Al1576   1.772       .  S
O1573     Al2331   1.887   1_545  S
O1573      C1574   1.263       .  A
C1574      O2327   1.272   1_545  A
C1574      C2249   1.502       .  S
C1575      C2193   1.501       .  S
C1578      C2947   1.498       .  S
C1579      O1580   1.262       .  A
C1579      C2165   1.492       .  S
O1581     Al1589   1.936       .  S
O1581      C1596   1.266       .  A
C1582      O1592   1.269       .  A
C1582      O1583   1.256       .  A
C1582      C2126   1.485       .  S
O1583     Al1585   1.858       .  S
O1584     Al1585   1.944       .  S
O1584      C1586   1.270       .  A
Al1585     O1593   1.949       .  S
Al1585     O1595   1.876       .  S
Al1585     O1594   1.775       .  S
C1586      O1599   1.262       .  A
C1586      C2095   1.505       .  S
O1587     Al1589   1.936       .  S
O1587      C1597   1.265       .  A
O1588     Al1598   1.949       .  S
O1588      C1601   1.270       .  A
Al1589     O1602   1.892       .  S
Al1589     O1599   1.896       .  S
Al1589     O1594   1.774       .  S
O1590     Al1598   1.866       .  S
O1590      C1597   1.253       .  A
O1591     Al1598   1.862       .  S
O1591      C1600   1.253       .  A
O1592     Al1598   1.946       .  S
O1593      C1600   1.267       .  A
O1594     Al1598   1.769       .  S
O1595      C1596   1.258       .  A
C1596      C2109   1.469       .  S
C1597      C2154   1.482       .  S
C1600      C2140   1.479       .  S
C1601      O1602   1.262       .  A
C1601      C2081   1.522       .  S
O1603     Al1611   1.909       .  S
C1604      O1614   1.264       .  A
C1604      O1605   1.253       .  A
C1604      C2123   1.489       .  S
O1605     Al1607   1.889       .  S
O1606     Al1607   1.912       .  S
O1606      C1608   1.267       .  A
Al1607     O1615   1.920       .  S
Al1607     O1616   1.790       .  S
C1608      O1621   1.268       .  A
C1608      C2067   1.487       .  S
O1609     Al1611   1.897       .  S
O1609      C1619   1.257       .  A
O1610     Al1620   1.924       .  S
O1610      C1623   1.268       .  A
Al1611     O1624   1.899       .  S
Al1611     O1621   1.925       .  S
Al1611     O1616   1.786       .  S
O1612     Al1620   1.881       .  S
O1612      C1619   1.251       .  A
O1613     Al1620   1.901       .  S
O1613      C1622   1.261       .  A
O1614     Al1620   1.921       .  S
O1615      C1622   1.267       .  A
O1616     Al1620   1.789       .  S
O1617      C1618   1.255       .  A
C1618      C2112   1.484       .  S
C1619      C2053   1.508       .  S
C1623      O1624   1.264       .  A
C1623      C2028   1.512       .  S
O1625     Al1633   1.917       .  S
O1625      C1640   1.261       .  A
C1626      O1636   1.267       .  A
C1626      O1627   1.252       .  A
C1626      C2011   1.495       .  S
O1627     Al1629   1.854       .  S
O1628     Al1629   1.945       .  S
O1628      C1630   1.270       .  A
Al1629     O1637   1.966       .  S
Al1629     O1639   1.882       .  S
Al1629     O1638   1.774       .  S
C1630      O1643   1.264       .  A
C1630      C2221   1.486       .  S
O1631     Al1633   1.943       .  S
O1631      C1641   1.267       .  A
O1632     Al1642   1.933       .  S
O1632      C1645   1.267       .  A
Al1633     O1646   1.894       .  S
Al1633     O1643   1.897       .  S
Al1633     O1638   1.780       .  S
O1634     Al1642   1.870       .  S
O1634      C1641   1.257       .  A
O1635     Al1642   1.862       .  S
O1635      C1644   1.253       .  A
O1636     Al1642   1.947       .  S
O1637      C1644   1.271       .  A
O1638     Al1642   1.775       .  S
O1639      C1640   1.257       .  A
C1640      C2768   1.469   1_545  S
C1641      C2039   1.497       .  S
C1644      C2056   1.497       .  S
C1645      O1646   1.261       .  A
C1645      C2098   1.482       .  S
O1647     Al1655   1.927       .  S
O1647      C1662   1.264       .  A
C1648      O1658   1.269       .  A
C1648      O1649   1.254       .  A
C1648      C2014   1.499       .  S
O1649     Al1651   1.860       .  S
O1650     Al1651   1.958       .  S
O1650      C1652   1.272       .  A
Al1651     O1659   1.965       .  S
Al1651     O1661   1.880       .  S
Al1651     O1660   1.773       .  S
C1652      O1665   1.261       .  A
C1652      C2025   1.493       .  S
O1653     Al1655   1.926       .  S
O1653      C1663   1.265       .  A
O1654     Al1664   1.949   1_556  S
O1654      C1667   1.269       .  A
Al1655     O1668   1.888       .  S
Al1655     O1665   1.900       .  S
Al1655     O1660   1.778       .  S
O1656     Al1664   1.872       .  S
O1656      C1663   1.256       .  A
O1657     Al1664   1.861       .  S
O1657      C1666   1.253       .  A
O1658     Al1664   1.957       .  S
O1659      C1666   1.271       .  A
O1660     Al1664   1.781       .  S
O1661      C1662   1.257       .  A
C1662      C1997   1.475       .  S
C1663      C2280   1.501   1_554  S
C1666      C2294   1.488       .  S
C1667      O1668   1.260   1_556  A
C1667      C2210   1.487       .  S
O1669     Al1677   1.902       .  S
O1669      C1684   1.259       .  A
C1670      O1680   1.264       .  A
C1670      O1671   1.260       .  A
C1670      C1983   1.476       .  S
O1671     Al1673   1.904       .  S
O1672     Al1673   1.902       .  S
O1672      C1674   1.265       .  A
Al1673     O1681   1.905       .  S
Al1673     O1683   1.889       .  S
Al1673     O1682   1.786       .  S
C1674      O1687   1.267       .  A
C1674      C1958   1.520       .  S
O1675     Al1677   1.901       .  S
O1675      C1685   1.260       .  A
O1676     Al1686   1.924       .  S
O1676      C1689   1.268       .  A
Al1677     O1690   1.927       .  S
Al1677     O1687   1.930       .  S
Al1677     O1682   1.775       .  S
O1678     Al1686   1.903       .  S
O1678      C1685   1.257       .  A
O1679     Al1686   1.911       .  S
O1679      C1688   1.260       .  A
O1680     Al1686   1.921       .  S
O1681      C1688   1.262       .  A
O1682     Al1686   1.788       .  S
O1683      C1684   1.254       .  A
C1684      C1969   1.490       .  S
C1685      C2182   1.503       .  S
C1688      C2196   1.474       .  S
C1689      O1690   1.268       .  A
C1689      C2238   1.510       .  S
O1691     Al1699   1.938       .  S
O1691      C1706   1.265       .  A
C1692      O1702   1.268       .  A
C1692      O1693   1.251       .  A
C1692      C1986   1.475       .  S
O1693     Al1695   1.846       .  S
O1694     Al1695   1.953       .  S
O1694      C1696   1.274       .  A
Al1695     O1703   1.946       .  S
Al1695     O1705   1.888       .  S
Al1695     O1704   1.787       .  S
C1696      O1709   1.265       .  A
C1696      C2168   1.503       .  S
O1697     Al1699   1.941       .  S
O1697      C1707   1.262       .  A
O1698     Al1708   1.951       .  S
O1698      C1711   1.274       .  A
Al1699     O1712   1.889       .  S
Al1699     O1709   1.903       .  S
Al1699     O1704   1.791       .  S
O1700     Al1708   1.877       .  S
O1700      C1707   1.250       .  A
O1701     Al1708   1.866       .  S
O1701      C1710   1.252       .  A
O1702     Al1708   1.943       .  S
O1703      C1710   1.265       .  A
O1704     Al1708   1.781       .  S
O1705      C1706   1.257       .  A
C1707      C1941   1.499       .  S
C1710      C1930   1.503       .  S
C1711      O1712   1.264       .  A
C1711      C1913   1.487       .  S
O1713     Al1721   1.912       .  S
O1713      C1728   1.258       .  A
C1714      O1724   1.270       .  A
C1714      O1715   1.254       .  A
C1714      C1871   1.503       .  S
O1715     Al1717   1.857       .  S
O1716     Al1717   1.937       .  S
O1716      C1718   1.270       .  A
Al1717     O1725   1.925       .  S
Al1717     O1727   1.891       .  S
Al1717     O1726   1.791       .  S
C1718      O1731   1.269       .  A
C1718      C2084   1.503       .  S
O1719     Al1721   1.921       .  S
O1719      C1729   1.256       .  A
O1720     Al1730   1.952       .  S
O1720      C1733   1.275       .  A
Al1721     O1734   1.894       .  S
Al1721     O1731   1.914       .  S
Al1721     O1726   1.794       .  S
O1722     Al1730   1.880       .  S
O1722      C1729   1.249       .  A
O1723     Al1730   1.867       .  S
O1723      C1732   1.250       .  A
O1724     Al1730   1.936       .  S
O1725      C1732   1.260       .  A
O1726     Al1730   1.782       .  S
O1727      C1728   1.257       .  A
C1729      C1902   1.495       .  S
C1732      C1885   1.503       .  S
C1733      O1734   1.265       .  A
C1733      C1843   1.491       .  S
O1735     Al1743   1.927       .  S
O1735      C1750   1.264       .  A
C1736      O1746   1.270       .  A
C1736      O1737   1.252       .  A
C1736      C1874   1.485       .  S
O1737     Al1739   1.850       .  S
O1738     Al1739   1.938       .  S
O1738      C1740   1.270       .  A
Al1739     O1747   1.940       .  S
Al1739     O1749   1.874       .  S
Al1739     O1748   1.778       .  S
C1740      O1753   1.267       .  A
C1740      C1829   1.498       .  S
O1741     Al1743   1.938       .  S
O1741      C1751   1.265       .  A
O1742     Al1752   1.957       .  S
O1742      C1755   1.272       .  A
Al1743     O1756   1.893       .  S
Al1743     O1753   1.910       .  S
Al1743     O1748   1.778       .  S
O1744     Al1752   1.867       .  S
O1744      C1751   1.253       .  A
O1745     Al1752   1.851       .  S
O1745      C1754   1.252       .  A
O1746     Al1752   1.948       .  S
O1747      C1754   1.263       .  A
O1748     Al1752   1.776       .  S
O1749      C1750   1.254       .  A
C1750      C2628   1.505   1_545  S
C1751      C2137   1.488       .  S
C1754      C2151   1.478   1_545  S
C1755      O1756   1.264       .  A
C1755      C2070   1.513       .  S
O1757     Al1765   1.934       .  S
O1757      C2540   1.265       .  A
C1758      O1768   1.266       .  A
C1758      O1759   1.249       .  A
C1758      C1815   1.464       .  S
O1759     Al1761   1.837       .  S
O1760     Al1761   1.952       .  S
O1760      C1762   1.271       .  A
Al1761     O1769   1.945       .  S
Al1761     O2539   1.872       .  S
Al1761     O1770   1.784       .  S
C1762      O1775   1.265       .  A
C1762      C1846   1.505       .  S
O1763     Al1765   1.941       .  S
O1763      C1773   1.264       .  A
O1764     Al1774   1.944       .  S
O1764      C1777   1.270       .  A
Al1765     O1778   1.892       .  S
Al1765     O1775   1.907       .  S
Al1765     O1770   1.787       .  S
O1766     Al1774   1.877       .  S
O1766      C1773   1.253       .  A
O1767     Al1774   1.872       .  S
O1767      C1776   1.253       .  A
O1768     Al1774   1.939       .  S
O1769      C1776   1.265       .  A
O1770     Al1774   1.785       .  S
O1771     Al2529   1.871   1_545  S
O1771      C1772   1.253       .  A
C1772      O2525   1.263   1_545  A
C1772      C1801   1.469       .  S
C1773      C1927   1.494       .  S
C1776      C2712   1.494       .  S
C1777      O1778   1.262       .  A
C1777      C1955   1.488       .  S
O1779     Al1787   1.914       .  S
O1779      C1794   1.260       .  A
C1780      O1790   1.264       .  A
C1780      O1781   1.248       .  A
C1780      C1818   1.464       .  S
O1781     Al1783   1.838       .  S
O1782     Al1783   1.938       .  S
O1782      C1784   1.269       .  A
Al1783     O1791   1.940       .  S
Al1783     O1793   1.879       .  S
Al1783     O1792   1.785       .  S
C1784      O1797   1.264       .  A
C1784      C1916   1.491       .  S
O1785     Al1787   1.926       .  S
O1785      C1795   1.260       .  A
O1786     Al1796   1.936       .  S
O1786      C1799   1.269       .  A
Al1787     O1800   1.890       .  S
Al1787     O1797   1.893       .  S
Al1787     O1792   1.786       .  S
O1788     Al1796   1.873       .  S
O1788      C1795   1.252       .  A
O1789     Al1796   1.867       .  S
O1789      C1798   1.254       .  A
O1790     Al1796   1.933       .  S
O1791      C1798   1.266       .  A
O1792     Al1796   1.784       .  S
O1793      C1794   1.255       .  A
C1794      C1804   1.468       .  S
C1798      C1899   1.493       .  S
C1799      O1800   1.263       .  A
C1799      C1832   1.479       .  S
C1801      C1802   1.415       .  A
C1801      C1806   1.407       .  A
C1802      C1803   1.405       .  A
C1802      C1807   1.451       .  S
C1803      C1804   1.405       .  A
C1803      C1810   1.452       .  S
C1804      C1805   1.415       .  A
C1805      C1806   1.408       .  A
C1805      C1808   1.451       .  S
C1806      C1809   1.452       .  S
C1807      N1814   1.157       .  T
C1808      N1813   1.157       .  T
C1809      N1811   1.157       .  T
C1810      N1812   1.157       .  T
C1815      C1816   1.410       .  A
C1815      C1820   1.410       .  A
C1816      C1817   1.410       .  A
C1816      C1821   1.450       .  S
C1817      C1818   1.409       .  A
C1817      C1824   1.450       .  S
C1818      C1819   1.410       .  A
C1819      C1820   1.404       .  A
C1819      C1822   1.453       .  S
C1820      C1823   1.453       .  S
C1821      N1828   1.157       .  T
C1822      N1827   1.157       .  T
C1823      N1825   1.157       .  T
C1824      N1826   1.157       .  T
C1829      C1830   1.420       .  A
C1829      C1834   1.419       .  A
C1830      C1831   1.416       .  A
C1830      C1835   1.449       .  S
C1831      C1832   1.408       .  A
C1831      C1838   1.451       .  S
C1832      C1833   1.407       .  A
C1833      C1834   1.411       .  A
C1833      C1836   1.452       .  S
C1834      C1837   1.449       .  S
C1835      N1842   1.157       .  T
C1836      N1841   1.157       .  T
C1837      N1839   1.156       .  T
C1838      N1840   1.157       .  T
C1843      C1844   1.411   1_655  A
C1843      C1848   1.409       .  A
C1845      C1846   1.419       .  A
C1845      C1852   1.450       .  S
C1847      C1848   1.418       .  A
C1847      C1850   1.450       .  S
C1848      C1851   1.450       .  S
C1849      N1856   1.157       .  T
C1850      N1855   1.157       .  T
C1851      N1853   1.157       .  T
C1852      N1854   1.157       .  T
C1857      C1862   1.413       .  A
C1858      C1863   1.453   1_455  S
C1859      C1860   1.410       .  A
C1859      C2634   1.453       .  S
C1860      C2518   1.476       .  S
C1860      C1861   1.414       .  A
C1861      C1862   1.405       .  A
C1861      C1864   1.453       .  S
C1862      C1865   1.452       .  S
C1863      N1870   1.158       .  T
C1864      N1869   1.157       .  T
C1865      N1867   1.157       .  T
C1866      C2627   1.453   1_545  S
C1866      N1868   1.157       .  T
C1871      C1872   1.429       .  A
C1871      C1876   1.417       .  A
C1872      C1873   1.412       .  A
C1872      C1877   1.453       .  S
C1873      C1874   1.407       .  A
C1873      C1880   1.453       .  S
C1874      C1875   1.416       .  A
C1875      C1876   1.411       .  A
C1875      C1878   1.454       .  S
C1876      C1879   1.450       .  S
C1877      N1884   1.157       .  T
C1878      N1883   1.157       .  T
C1879      N1881   1.157       .  T
C1880      N1882   1.157       .  T
C1885      C1890   1.424       .  A
C1886      C1887   1.413       .  A
C1886      C1891   1.449       .  S
C1887      C1894   1.451       .  S
C1888      C1889   1.409       .  A
C1889      C1890   1.411   1_455  A
C1889      C1892   1.452   1_455  S
C1890      C1893   1.452       .  S
C1891      N1898   1.157       .  T
C1892      N1897   1.157       .  T
C1893      N1895   1.157       .  T
C1894      N1896   1.157       .  T
C1899      C1900   1.411       .  A
C1899      C1904   1.419       .  A
C1900      C1901   1.415       .  A
C1900      C1905   1.451       .  S
C1901      C1902   1.419       .  A
C1901      C1908   1.451       .  S
C1902      C1903   1.413       .  A
C1903      C1904   1.412       .  A
C1903      C1906   1.451       .  S
C1904      C1907   1.453       .  S
C1905      N1912   1.157       .  T
C1906      N1911   1.158       .  T
C1907      N1909   1.157       .  T
C1908      N1910   1.157       .  T
C1913      C1914   1.410       .  A
C1913      C1918   1.411   1_655  A
C1914      C1915   1.416   1_655  A
C1914      C1919   1.450       .  S
C1915      C1922   1.451   1_455  S
C1916      C1917   1.416       .  A
C1917      C1920   1.451       .  S
C1919      N1926   1.157       .  T
C1920      N1925   1.157       .  T
C1921      N1923   1.156       .  T
C1922      N1924   1.157       .  T
C1927      C1928   1.419       .  A
C1928      C1929   1.416       .  A
C1928      C1933   1.451       .  S
C1929      C1936   1.450       .  S
C1930      C1931   1.422       .  A
C1931      C1932   1.414   1_655  A
C1931      C1934   1.453       .  S
C1932      C1935   1.450   1_455  S
C1933      N1940   1.157       .  T
C1934      N1939   1.158       .  T
C1935      N1937   1.157       .  T
C1936      N1938   1.157       .  T
C1941      C1942   1.412       .  A
C1941      C1946   1.421       .  A
C1942      C1943   1.410       .  A
C1942      C1947   1.444       .  S
C1943      C1944   1.415       .  A
C1943      C2718   1.454   1_545  S
C1944      C2544   1.492   1_545  S
C1944      C1945   1.411       .  A
C1945      C1946   1.418       .  A
C1945      C1948   1.450       .  S
C1946      C1949   1.451       .  S
C1947      N1954   1.154       .  T
C1948      N1953   1.157       .  T
C1949      N1951   1.157       .  T
C1950      C2711   1.453       .  S
C1950      N1952   1.157       .  T
C1955      C2724   1.408       .  A
C1955      C1960   1.405       .  A
C1956      C2723   1.408       .  A
C1956      C1957   1.415       .  A
C1956      C1961   1.452       .  S
C1957      C1958   1.429       .  A
C1957      C1964   1.453       .  S
C1958      C2727   1.431       .  A
C1959      C2726   1.432       .  A
C1959      C1960   1.418       .  A
C1959      C1962   1.450       .  S
C1960      C1963   1.452       .  S
C1961      N1968   1.157       .  T
C1962      N1967   1.158       .  T
C1963      N1965   1.157       .  T
C1964      N1966   1.158       .  T
C1969      C1970   1.413       .  A
C1969      C1974   1.417       .  A
C1970      C1975   1.453       .  S
C1971      C1978   1.445   1_455  S
C1972      C1973   1.414       .  A
C1973      C1974   1.414       .  A
C1973      C1976   1.449       .  S
C1974      C1977   1.452       .  S
C1976      N1981   1.157       .  T
C1977      N1979   1.157       .  T
C1978      N1980   1.154       .  T
C1983      C1984   1.410       .  A
C1983      C1988   1.408       .  A
C1984      C1985   1.410       .  A
C1984      C1989   1.449       .  S
C1985      C1986   1.410       .  A
C1985      C1992   1.452       .  S
C1986      C1987   1.414       .  A
C1987      C1988   1.412       .  A
C1987      C1990   1.451       .  S
C1988      C1991   1.449       .  S
C1989      N1996   1.157       .  T
C1990      N1995   1.157       .  T
C1991      N1993   1.157       .  T
C1992      N1994   1.157       .  T
C1997      C1998   1.408       .  A
C1997      C2002   1.414       .  A
C1998      C1999   1.409       .  A
C1998      C2003   1.450       .  S
C1999      C2000   1.414       .  A
C1999      C2774   1.451       .  S
C2000      C2408   1.474       .  S
C2000      C2001   1.407       .  A
C2001      C2002   1.408       .  A
C2001      C2004   1.450       .  S
C2002      C2005   1.452       .  S
C2003      N2010   1.157       .  T
C2004      N2009   1.157       .  T
C2005      N2007   1.157       .  T
C2006      C2767   1.451   1_545  S
C2006      N2008   1.157       .  T
C2011      C2012   1.421       .  A
C2011      C2016   1.410       .  A
C2012      C2013   1.410       .  A
C2012      C2017   1.454       .  S
C2013      C2014   1.413       .  A
C2013      C2020   1.449       .  S
C2014      C2015   1.424       .  A
C2015      C2016   1.410       .  A
C2015      C2018   1.453       .  S
C2016      C2019   1.451       .  S
C2017      N2024   1.157       .  T
C2018      N2023   1.157       .  T
C2019      N2021   1.158       .  T
C2020      N2022   1.158       .  T
C2025      C2026   1.411       .  A
C2025      C2030   1.410       .  A
C2026      C2031   1.449       .  S
C2027      C2028   1.423       .  A
C2027      C2034   1.449       .  S
C2029      C2030   1.416       .  A
C2029      C2032   1.451   1_655  S
C2030      C2033   1.451       .  S
C2031      N2038   1.157       .  T
C2032      N2037   1.157       .  T
C2033      N2035   1.157       .  T
C2034      N2036   1.157       .  T
C2039      C2040   1.422       .  A
C2039      C2044   1.419       .  A
C2040      C2045   1.450       .  S
C2041      C2048   1.453       .  S
C2042      C2043   1.406       .  A
C2043      C2044   1.403       .  A
C2043      C2046   1.454       .  S
C2044      C2047   1.450       .  S
C2045      N2052   1.158       .  T
C2046      N2051   1.157       .  T
C2047      N2049   1.156       .  T
C2048      N2050   1.157       .  T
C2053      C2822   1.419       .  A
C2053      C2058   1.430       .  A
C2054      C2821   1.420       .  A
C2054      C2055   1.411   1_565  A
C2054      C2059   1.454   1_565  S
C2055      C2056   1.419       .  A
C2055      C2062   1.454       .  S
C2056      C2825   1.409   1_545  A
C2057      C2824   1.406       .  A
C2057      C2058   1.416       .  A
C2057      C2060   1.452       .  S
C2058      C2061   1.451       .  S
C2059      N2066   1.158       .  T
C2060      N2065   1.157       .  T
C2061      N2063   1.158       .  T
C2062      N2064   1.157       .  T
C2067      C2068   1.410       .  A
C2067      C2840   1.406       .  A
C2068      C2837   1.420       .  A
C2068      C2073   1.451       .  S
C2069      C2836   1.419   1_545  A
C2069      C2070   1.425       .  A
C2069      C2076   1.450       .  S
C2070      C2071   1.424       .  A
C2071      C2072   1.414   1_545  A
C2071      C2074   1.452       .  S
C2072      C2835   1.409       .  A
C2072      C2075   1.452       .  S
C2073      N2080   1.157       .  T
C2074      N2079   1.158       .  T
C2075      N2077   1.157       .  T
C2076      N2078   1.157       .  T
C2081      C2082   1.428       .  A
C2081      C2086   1.427       .  A
C2082      C2083   1.415       .  A
C2082      C2087   1.453       .  S
C2083      C2084   1.414       .  A
C2083      C2090   1.453       .  S
C2084      C2085   1.412       .  A
C2085      C2086   1.419       .  A
C2085      C2088   1.452       .  S
C2086      C2089   1.451       .  S
C2087      N2862   1.158       .  T
C2088      N2093   1.157       .  T
C2089      N2091   1.158       .  T
C2090      N2092   1.157       .  T
N2094      C2855   1.158       .  T
C2095      C2864   1.425       .  A
C2095      C2100   1.422       .  A
C2096      C2863   1.425   1_545  A
C2096      C2097   1.412       .  A
C2096      C2101   1.452       .  S
C2097      C2098   1.405       .  A
C2097      C2104   1.450       .  S
C2098      C2099   1.411   1_545  A
C2099      C2868   1.413       .  A
C2099      C2870   1.453       .  S
C2100      C2867   1.412       .  A
C2100      C2103   1.450       .  S
C2101      N2108   1.157       .  T
C2102      C2867   1.454       .  S
C2102      N2107   1.157       .  T
C2103      N2105   1.157       .  T
C2104      N2106   1.157       .  T
C2109      C2110   1.411       .  A
C2109      C2114   1.405       .  A
C2110      C2111   1.408       .  A
C2110      C2115   1.451       .  S
C2111      C2112   1.413       .  A
C2111      C2118   1.452       .  S
C2112      C2113   1.421       .  A
C2113      C2114   1.407       .  A
C2114      C2117   1.453       .  S
C2115      N2122   1.157       .  T
C2116      N2121   1.157       .  T
C2117      N2119   1.157       .  T
C2118      N2120   1.157       .  T
C2123      C2124   1.425       .  A
C2123      C2128   1.410       .  A
C2124      C2125   1.409       .  A
C2124      C2129   1.452       .  S
C2125      C2126   1.408       .  A
C2125      C2132   1.453       .  S
C2126      C2127   1.417       .  A
C2127      C2128   1.408       .  A
C2127      C2130   1.452       .  S
C2128      C2131   1.452       .  S
C2129      N2136   1.158       .  T
C2130      N2135   1.157       .  T
C2131      N2133   1.157       .  T
C2132      N2134   1.158       .  T
C2137      C2138   1.411       .  A
C2137      C2142   1.421       .  A
C2138      C2139   1.407       .  A
C2138      C2143   1.450       .  S
C2139      C2140   1.416       .  A
C2139      C2146   1.453       .  S
C2140      C2141   1.406       .  A
C2141      C2142   1.413       .  A
C2141      C2144   1.451       .  S
C2142      C2145   1.451       .  S
C2143      N2150   1.156       .  T
C2144      N2149   1.157       .  T
C2145      N2147   1.157       .  T
C2146      N2148   1.157       .  T
C2151      C2152   1.409       .  A
C2151      C2156   1.411   1_565  A
C2152      C2921   1.400       .  A
C2152      C2157   1.452       .  S
C2153      C2920   1.404       .  A
C2153      C2154   1.414       .  A
C2153      C2160   1.451       .  S
C2154      C2923   1.414       .  A
C2155      C2922   1.416       .  A
C2155      C2156   1.415   1_565  A
C2155      C2158   1.450       .  S
C2156      C2159   1.448       .  S
C2157      N2164   1.157       .  T
C2158      N2163   1.157       .  T
C2159      N2161   1.157       .  T
C2160      N2162   1.157       .  T
C2165      C2934   1.410       .  A
C2165      C2170   1.409       .  A
C2166      C2933   1.408       .  A
C2166      C2167   1.412       .  A
C2166      C2171   1.450       .  S
C2167      C2168   1.420       .  A
C2167      C2174   1.451       .  S
C2168      C2937   1.423       .  A
C2169      C2936   1.423       .  A
C2169      C2170   1.418       .  A
C2169      C2172   1.451       .  S
C2170      C2173   1.449       .  S
C2171      N2178   1.156       .  T
C2172      N2177   1.158       .  T
C2173      N2175   1.157       .  T
C2174      N2176   1.157       .  T
C2179      C2346   1.502       .  S
C2179      C2180   1.414       .  A
C2179      C2184   1.423       .  A
C2180      C2181   1.418       .  A
C2180      C2185   1.450       .  S
C2181      C2182   1.422       .  A
C2181      C2188   1.451       .  S
C2182      C2183   1.414       .  A
C2183      C2184   1.409       .  A
C2183      C2186   1.451       .  S
C2184      C2955   1.455   1_545  S
C2185      N2960   1.157       .  T
C2186      N2191   1.156       .  T
C2187      C2952   1.455       .  S
C2187      N2189   1.158       .  T
C2188      N2190   1.157       .  T
N2192      C2953   1.157       .  T
C2193      C2194   1.421       .  A
C2193      C2198   1.428       .  A
C2194      C2195   1.412       .  A
C2194      C2199   1.450       .  S
C2195      C2196   1.406       .  A
C2195      C2202   1.450       .  S
C2196      C2197   1.404       .  A
C2197      C2198   1.408       .  A
C2197      C2200   1.454       .  S
C2198      C2201   1.453       .  S
C2199      N2206   1.158       .  T
C2200      N2205   1.157       .  T
C2201      N2203   1.157       .  T
C2202      N2204   1.157       .  T
C2207      C2208   1.426       .  A
C2207      C2212   1.424       .  A
C2208      C2209   1.413       .  A
C2208      C2213   1.452       .  S
C2209      C2210   1.409       .  A
C2209      C2216   1.454       .  S
C2210      C2211   1.408       .  A
C2211      C2212   1.417       .  A
C2211      C2214   1.451       .  S
C2212      C2215   1.450       .  S
C2213      N2220   1.158       .  T
C2214      N2219   1.157       .  T
C2215      N2217   1.158       .  T
C2216      N2218   1.157   1_556  T
C2221      C2222   1.406       .  A
C2221      C2226   1.406       .  A
C2222      C2227   1.450       .  S
C2223      C2224   1.428       .  A
C2223      C2230   1.450       .  S
C2225      C2226   1.415       .  A
C2226      C2229   1.453       .  S
C2227      N2234   1.156       .  T
C2228      N2233   1.158       .  T
C2229      N2231   1.157       .  T
C2230      N2232   1.157       .  T
C2235      C2236   1.407       .  A
C2235      C2240   1.411       .  A
C2236      C2237   1.413       .  A
C2236      C2241   1.454       .  S
C2237      C2238   1.423       .  A
C2237      C2244   1.448       .  S
C2238      C2239   1.421       .  A
C2239      C2240   1.421       .  A
C2239      C2242   1.450       .  S
C2240      C2243   1.449       .  S
C2241      N2248   1.157       .  T
C2242      N2247   1.157       .  T
C2243      N2245   1.157       .  T
C2244      N2246   1.156       .  T
C2249      C2250   1.418       .  A
C2249      C2254   1.422       .  A
C2250      C2251   1.412       .  A
C2250      C2255   1.451       .  S
C2251      C2252   1.416       .  A
C2251      C2258   1.453       .  S
C2252      C2253   1.412       .  A
C2253      C2254   1.414       .  A
C2254      C2257   1.451       .  S
C2255      N3030   1.157       .  T
C2256      N2261   1.157       .  T
C2257      N2259   1.157   1_545  T
C2258      N2260   1.157       .  T
N2262      C3023   1.157       .  T
C2263      C2264   1.414       .  A
C2263      C2268   1.406       .  A
C2264      C2265   1.406       .  A
C2264      C2269   1.450       .  S
C2265      C2266   1.413       .  A
C2265      C2272   1.452       .  S
C2266      C2267   1.426       .  A
C2267      C2268   1.412       .  A
C2267      C2270   1.451       .  S
C2268      C2271   1.451       .  S
C2269      N2276   1.156       .  T
C2270      N2275   1.157       .  T
C2271      N2273   1.157       .  T
C2272      N2274   1.157       .  T
C2277      C2278   1.412       .  A
C2277      C2282   1.405       .  A
C2278      C2279   1.409       .  A
C2278      C2283   1.451   1_655  S
C2279      C2280   1.421       .  A
C2279      C2286   1.452       .  S
C2280      C2281   1.423       .  A
C2281      C2282   1.408       .  A
C2281      C2284   1.447   1_556  S
C2282      C2285   1.455       .  S
C2284      N2289   1.155       .  T
C2285      N2287   1.157       .  T
C2286      N2288   1.158       .  T
C2291      C2292   1.433       .  A
C2291      C2296   1.419       .  A
C2292      C2293   1.417       .  A
C2292      C2297   1.451       .  S
C2293      C2294   1.404       .  A
C2293      C2300   1.451       .  S
C2294      C2295   1.414       .  A
C2295      C2296   1.410       .  A
C2295      C2298   1.449       .  S
C2296      C2299   1.453   1_554  S
C2297      N2304   1.158       .  T
C2298      N2303   1.156       .  T
C2299      N2301   1.158       .  T
C2300      N2302   1.157       .  T
O2305     Al2313   1.917       .  S
C2306      O2316   1.268       .  A
C2306      O2307   1.258       .  A
C2306      C3034   1.489       .  S
O2307     Al2309   1.890       .  S
O2308     Al2309   1.915       .  S
O2308      C2310   1.266       .  A
Al2309     O2317   1.914       .  S
Al2309     O2318   1.790       .  S
C2310      O2323   1.265       .  A
C2310      C3003   1.490       .  S
O2311     Al2313   1.904       .  S
O2311      C2321   1.257   1_556  A
O2312     Al2322   1.924   1_554  S
O2312      C2325   1.270       .  A
Al2313     O2326   1.921   1_556  S
Al2313     O2323   1.918       .  S
Al2313     O2318   1.782       .  S
O2314     Al2322   1.889   1_554  S
O2314      C2321   1.250       .  A
O2315     Al2322   1.894       .  S
O2315      C2324   1.255       .  A
O2316     Al2322   1.914       .  S
O2317      C2324   1.262       .  A
O2318     Al2322   1.797       .  S
O2319      C2320   1.249       .  A
C2320      C3020   1.482       .  S
C2321      C3059   1.511       .  S
C2325      O2326   1.269       .  A
C2325      C2992   1.524       .  S
O2327     Al2335   1.947       .  S
C2328      O2338   1.270       .  A
C2328      O2329   1.254       .  A
C2328      C3031   1.478       .  S
O2329     Al2331   1.850       .  S
O2330     Al2331   1.942       .  S
O2330      C2332   1.268       .  A
Al2331     O2339   1.960       .  S
Al2331     O2340   1.783       .  S
C2332      O2345   1.263       .  A
C2332      C2975   1.505       .  S
O2333     Al2335   1.957       .  S
O2333      C2343   1.269       .  A
O2334     Al2344   1.935       .  S
O2334      C2347   1.267       .  A
Al2335     O2348   1.893       .  S
Al2335     O2345   1.898       .  S
Al2335     O2340   1.772       .  S
O2336     Al2344   1.861       .  S
O2336      C2343   1.251       .  A
O2337     Al2344   1.863       .  S
O2337      C2346   1.251   1_565  A
O2338     Al2344   1.944       .  S
O2339      C2346   1.267   1_565  A
O2340     Al2344   1.772       .  S
O2341      C2342   1.264       .  A
C2342      C3017   1.496       .  S
C2343      C2961   1.511       .  S
C2347      O2348   1.261       .  A
C2347      C2933   1.484   1_565  S
O2349     Al2357   1.937       .  S
O2349      C2364   1.267       .  A
C2350      O2360   1.271       .  A
C2350      O2351   1.254       .  A
C2350      C2894   1.488       .  S
O2351     Al2353   1.849       .  S
O2352     Al2353   1.957       .  S
O2352      C2354   1.273       .  A
Al2353     O2361   1.964       .  S
Al2353     O2363   1.871       .  S
Al2353     O2362   1.773       .  S
C2354      O2367   1.261       .  A
C2354      C2863   1.502       .  S
O2355     Al2357   1.933       .  S
O2355      C2365   1.263       .  A
O2356     Al2366   1.943       .  S
O2356      C2369   1.271       .  A
Al2357     O2370   1.876       .  S
Al2357     O2367   1.888       .  S
Al2357     O2362   1.775       .  S
O2358     Al2366   1.871       .  S
O2358      C2365   1.254       .  A
O2359     Al2366   1.861       .  S
O2359      C2368   1.251       .  A
O2360     Al2366   1.953       .  S
O2361      C2368   1.269       .  A
O2362     Al2366   1.767       .  S
O2363      C2364   1.259       .  A
C2364      C2877   1.478       .  S
C2365      C2922   1.483       .  S
C2368      C2908   1.495       .  S
C2369      O2370   1.260       .  A
C2369      C2849   1.513       .  S
O2371     Al2379   1.906       .  S
C2372      O2382   1.269       .  A
C2372      O2373   1.255       .  A
C2372      C2891   1.493       .  S
O2373     Al2375   1.888       .  S
O2374     Al2375   1.911       .  S
O2374      C2376   1.264       .  A
Al2375     O2383   1.913       .  S
Al2375     O2384   1.782       .  S
C2376      O2389   1.266       .  A
C2376      C2835   1.489       .  S
O2377     Al2379   1.900       .  S
O2377      C2387   1.260       .  A
O2378     Al2388   1.942       .  S
O2378      C2391   1.271       .  A
Al2379     O2392   1.905       .  S
Al2379     O2389   1.928       .  S
Al2379     O2384   1.779       .  S
O2380     Al2388   1.905       .  S
O2380      C2387   1.257       .  A
O2381     Al2388   1.905       .  S
O2381      C2390   1.259       .  A
O2382     Al2388   1.930       .  S
O2383      C2390   1.264       .  A
O2384     Al2388   1.783       .  S
O2385      C2386   1.248       .  A
C2386      C2880   1.483       .  S
C2387      C2821   1.511       .  S
C2391      O2392   1.263       .  A
C2391      C2796   1.527       .  S
O2393     Al2401   1.924       .  S
O2393      C2408   1.262       .  A
C2394      O2404   1.267       .  A
C2394      O2395   1.253       .  A
C2394      C2779   1.497       .  S
O2395     Al2397   1.856       .  S
O2396     Al2397   1.946       .  S
O2396      C2398   1.271       .  A
Al2397     O2405   1.959       .  S
Al2397     O2407   1.885       .  S
Al2397     O2406   1.776       .  S
C2398      O2411   1.264       .  A
C2398      C2989   1.486       .  S
O2399     Al2401   1.939       .  S
O2399      C2409   1.266       .  A
O2400     Al2410   1.939       .  S
O2400      C2413   1.268       .  A
Al2401     O2414   1.887       .  S
Al2401     O2411   1.895       .  S
Al2401     O2406   1.778       .  S
O2402     Al2410   1.877       .  S
O2402      C2409   1.256       .  A
O2403     Al2410   1.854       .  S
O2403      C2412   1.252       .  A
O2404     Al2410   1.945       .  S
O2405      C2412   1.270       .  A
O2406     Al2410   1.779       .  S
O2407      C2408   1.257       .  A
C2409      C2807   1.507       .  S
C2412      C2824   1.489       .  S
C2413      O2414   1.261       .  A
C2413      C2866   1.481       .  S
O2415     Al2423   1.919       .  S
O2415      C2430   1.261       .  A
C2416      O2426   1.266       .  A
C2416      O2417   1.253       .  A
C2416      C2782   1.492       .  S
O2417     Al2419   1.855       .  S
O2418     Al2419   1.945       .  S
O2418      C2420   1.269       .  A
Al2419     O2427   1.955       .  S
Al2419     O2429   1.878       .  S
Al2419     O2428   1.775       .  S
C2420      O2433   1.262       .  A
C2420      C2793   1.488       .  S
O2421     Al2423   1.925       .  S
O2421      C2431   1.265       .  A
O2422     Al2432   1.938   1_556  S
O2422      C2435   1.267       .  A
Al2423     O2436   1.890       .  S
Al2423     O2433   1.896       .  S
Al2423     O2428   1.780       .  S
O2424     Al2432   1.877       .  S
O2424      C2431   1.257       .  A
O2425     Al2432   1.867       .  S
O2425      C2434   1.255       .  A
O2426     Al2432   1.943       .  S
O2427      C2434   1.269       .  A
O2428     Al2432   1.781       .  S
O2429      C2430   1.256       .  A
C2430      C2765   1.469       .  S
C2431      C3048   1.498   1_554  S
C2434      C3062   1.486       .  S
C2435      O2436   1.261   1_556  A
C2435      C2978   1.482       .  S
O2437     Al2445   1.903       .  S
O2437      C2452   1.259       .  A
C2438      O2448   1.264       .  A
C2438      O2439   1.261       .  A
C2438      C2751   1.473       .  S
O2439     Al2441   1.904       .  S
O2440     Al2441   1.911       .  S
O2440      C2442   1.267       .  A
Al2441     O2449   1.920       .  S
Al2441     O2451   1.884       .  S
Al2441     O2450   1.782       .  S
C2442      O2455   1.267       .  A
C2442      C2726   1.524       .  S
O2443     Al2445   1.900       .  S
O2443      C2453   1.260       .  A
O2444     Al2454   1.917       .  S
O2444      C2457   1.268       .  A
Al2445     O2458   1.931       .  S
Al2445     O2455   1.930       .  S
Al2445     O2450   1.778       .  S
O2446     Al2454   1.908       .  S
O2446      C2453   1.257       .  A
O2447     Al2454   1.916       .  S
O2447      C2456   1.260       .  A
O2448     Al2454   1.916       .  S
O2449      C2456   1.264       .  A
O2450     Al2454   1.788       .  S
O2451      C2452   1.255       .  A
C2452      C2737   1.488       .  S
C2453      C2950   1.506       .  S
C2456      C2964   1.484       .  S
C2457      O2458   1.269       .  A
C2457      C3006   1.512       .  S
O2459     Al2467   1.948       .  S
O2459      C2474   1.267       .  A
C2460      O2470   1.267       .  A
C2460      O2461   1.251       .  A
C2460      C2754   1.470       .  S
O2461     Al2463   1.845       .  S
O2462     Al2463   1.957       .  S
O2462      C2464   1.275       .  A
Al2463     O2471   1.943       .  S
Al2463     O2473   1.893       .  S
Al2463     O2472   1.787       .  S
C2464      O2477   1.266       .  A
C2464      C2936   1.508       .  S
O2465     Al2467   1.946       .  S
O2465      C2475   1.263       .  A
O2466     Al2476   1.948       .  S
O2466      C2479   1.273       .  A
Al2467     O2480   1.890       .  S
Al2467     O2477   1.905       .  S
Al2467     O2472   1.790       .  S
O2468     Al2476   1.878       .  S
O2468      C2475   1.250       .  A
O2469     Al2476   1.867       .  S
O2469      C2478   1.251       .  A
O2470     Al2476   1.937       .  S
O2471      C2478   1.264       .  A
O2472     Al2476   1.784       .  S
O2473      C2474   1.256       .  A
C2475      C2709   1.501       .  S
C2478      C2698   1.502       .  S
C2479      O2480   1.265       .  A
C2479      C2681   1.486       .  S
O2481     Al2489   1.913       .  S
O2481      C2496   1.260       .  A
C2482      O2492   1.270       .  A
C2482      O2483   1.250       .  A
C2482      C2639   1.496       .  S
O2483     Al2485   1.839       .  S
O2484     Al2485   1.934       .  S
O2484      C2486   1.272       .  A
Al2485     O2493   1.934       .  S
Al2485     O2495   1.876       .  S
Al2485     O2494   1.783       .  S
C2486      O2499   1.269       .  A
C2486      C2852   1.501       .  S
O2487     Al2489   1.929       .  S
O2487      C2497   1.259       .  A
O2488     Al2498   1.958       .  S
O2488      C2501   1.275       .  A
Al2489     O2502   1.882       .  S
Al2489     O2499   1.905       .  S
Al2489     O2494   1.790       .  S
O2490     Al2498   1.871       .  S
O2490      C2497   1.250       .  A
O2491     Al2498   1.859       .  S
O2491      C2500   1.250       .  A
O2492     Al2498   1.943       .  S
O2493      C2500   1.262       .  A
O2494     Al2498   1.772       .  S
O2495      C2496   1.256       .  A
C2497      C2670   1.491       .  S
C2500      C2653   1.500       .  S
C2501      O2502   1.263       .  A
C2501      C2611   1.486       .  S
O2503     Al2511   1.903       .  S
O2503      C2518   1.260       .  A
C2504      O2514   1.265       .  A
C2504      O2505   1.255       .  A
C2504      C2642   1.501       .  S
O2505     Al2507   1.885       .  S
O2506     Al2507   1.915       .  S
O2506      C2508   1.264       .  A
Al2507     O2515   1.912       .  S
Al2507     O2517   1.876       .  S
Al2507     O2516   1.784       .  S
C2508      O2521   1.266       .  A
C2508      C2597   1.489       .  S
O2509     Al2511   1.898       .  S
O2509      C2519   1.260       .  A
O2510     Al2520   1.917       .  S
O2510      C2523   1.266       .  A
Al2511     O2524   1.925       .  S
Al2511     O2521   1.927       .  S
Al2511     O2516   1.777       .  S
O2512     Al2520   1.904       .  S
O2512      C2519   1.258       .  A
O2513     Al2520   1.898       .  S
O2513      C2522   1.258       .  A
O2514     Al2520   1.905       .  S
O2515      C2522   1.262       .  A
O2516     Al2520   1.778       .  S
O2517      C2518   1.255       .  A
C2519      C2905   1.511       .  S
C2522      C2919   1.471       .  S
C2523      O2524   1.266       .  A
C2523      C2838   1.514       .  S
O2525     Al2533   1.930       .  S
C2526      O2536   1.267       .  A
C2526      O2527   1.249       .  A
C2526      C2583   1.464       .  S
O2527     Al2529   1.833       .  S
O2528     Al2529   1.948       .  S
O2528      C2530   1.271       .  A
Al2529     O2537   1.941       .  S
Al2529     O2538   1.785       .  S
C2530      O2543   1.266       .  A
C2530      C2614   1.502       .  S
O2531     Al2533   1.943       .  S
O2531      C2541   1.264       .  A
O2532     Al2542   1.942       .  S
O2532      C2545   1.271       .  A
Al2533     O2546   1.888       .  S
Al2533     O2543   1.908       .  S
Al2533     O2538   1.788       .  S
O2534     Al2542   1.884       .  S
O2534      C2541   1.253       .  A
O2535     Al2542   1.868       .  S
O2535      C2544   1.252       .  A
O2536     Al2542   1.938       .  S
O2537      C2544   1.263       .  A
O2538     Al2542   1.783       .  S
O2539      C2540   1.254       .  A
C2540      C2569   1.476       .  S
C2541      C2695   1.503       .  S
C2545      O2546   1.262       .  A
C2545      C2723   1.485   1_565  S
O2547     Al2555   1.924       .  S
O2547      C2562   1.262       .  A
C2548      O2558   1.267       .  A
C2548      O2549   1.250       .  A
C2548      C2586   1.468       .  S
O2549     Al2551   1.841       .  S
O2550     Al2551   1.933       .  S
O2550      C2552   1.268       .  A
Al2551     O2559   1.931       .  S
Al2551     O2561   1.881       .  S
Al2551     O2560   1.785       .  S
C2552      O2565   1.263       .  A
C2552      C2684   1.491       .  S
O2553     Al2555   1.939       .  S
O2553      C2563   1.263       .  A
O2554     Al2564   1.954       .  S
O2554      C2567   1.272       .  A
Al2555     O2568   1.883       .  S
Al2555     O2565   1.893       .  S
Al2555     O2560   1.781       .  S
O2556     Al2564   1.875       .  S
O2556      C2563   1.252       .  A
O2557     Al2564   1.860       .  S
O2557      C2566   1.252       .  A
O2558     Al2564   1.942       .  S
O2559      C2566   1.263       .  A
O2560     Al2564   1.786       .  S
O2561      C2562   1.255       .  A
C2562      C2572   1.471       .  S
C2566      C2667   1.480       .  S
C2567      O2568   1.262       .  A
C2567      C2600   1.508       .  S
C2569      C2570   1.417       .  A
C2569      C2574   1.409       .  A
C2570      C2571   1.408       .  A
C2570      C2575   1.451       .  S
C2571      C2572   1.405       .  A
C2571      C2578   1.452       .  S
C2572      C2573   1.414       .  A
C2573      C2574   1.409       .  A
C2573      C2576   1.451       .  S
C2574      C2577   1.452       .  S
C2575      N2582   1.157       .  T
C2576      N2581   1.157       .  T
C2577      N2579   1.157       .  T
C2578      N2580   1.157       .  T
C2583      C2584   1.409       .  A
C2583      C2588   1.410       .  A
C2584      C2585   1.410       .  A
C2584      C2589   1.451       .  S
C2585      C2586   1.411       .  A
C2585      C2592   1.449       .  S
C2586      C2587   1.411       .  A
C2587      C2588   1.404       .  A
C2587      C2590   1.453       .  S
C2588      C2591   1.454       .  S
C2589      N2596   1.157       .  T
C2590      N2595   1.157       .  T
C2591      N2593   1.157       .  T
C2592      N2594   1.157       .  T
C2597      C2598   1.408       .  A
C2597      C2602   1.411       .  A
C2598      C2599   1.411       .  A
C2598      C2603   1.450       .  S
C2599      C2600   1.422       .  A
C2599      C2606   1.453       .  S
C2600      C2601   1.423       .  A
C2601      C2602   1.420       .  A
C2601      C2604   1.450       .  S
C2602      C2605   1.451       .  S
C2603      N2610   1.156       .  T
C2604      N2609   1.158       .  T
C2605      N2607   1.157       .  T
C2606      N2608   1.158       .  T
C2611      C2612   1.411   1_655  A
C2611      C2616   1.409       .  A
C2613      C2614   1.418       .  A
C2613      C2620   1.450       .  S
C2615      C2616   1.416       .  A
C2615      C2618   1.451       .  S
C2616      C2619   1.451       .  S
C2617      N2624   1.156       .  T
C2618      N2623   1.157       .  T
C2619      N2621   1.157       .  T
C2620      N2622   1.157       .  T
C2625      C2630   1.408       .  A
C2626      C2631   1.452   1_455  S
C2627      C2628   1.423       .  A
C2628      C2629   1.428       .  A
C2629      C2630   1.410       .  A
C2629      C2632   1.453       .  S
C2630      C2633   1.453       .  S
C2631      N2638   1.158       .  T
C2632      N2637   1.158       .  T
C2633      N2635   1.157       .  T
C2634      N2636   1.157       .  T
C2639      C2640   1.424       .  A
C2639      C2644   1.410       .  A
C2640      C2641   1.408       .  A
C2640      C2645   1.452       .  S
C2641      C2642   1.415       .  A
C2641      C2648   1.455       .  S
C2642      C2643   1.429       .  A
C2643      C2644   1.411       .  A
C2643      C2646   1.453       .  S
C2644      C2647   1.452       .  S
C2645      N2652   1.156       .  T
C2646      N2651   1.158       .  T
C2647      N2649   1.157       .  T
C2648      N2650   1.158       .  T
C2653      C2658   1.423       .  A
C2654      C2655   1.416       .  A
C2654      C2659   1.450       .  S
C2655      C2662   1.451       .  S
C2656      C2657   1.408       .  A
C2657      C2658   1.408   1_455  A
C2657      C2660   1.451   1_455  S
C2658      C2661   1.453       .  S
C2659      N2666   1.157       .  T
C2660      N2665   1.156       .  T
C2661      N2663   1.157       .  T
C2662      N2664   1.157       .  T
C2667      C2668   1.407       .  A
C2667      C2672   1.415       .  A
C2668      C2669   1.411       .  A
C2668      C2673   1.452       .  S
C2669      C2670   1.421       .  A
C2669      C2676   1.452       .  S
C2670      C2671   1.413       .  A
C2671      C2672   1.409       .  A
C2671      C2674   1.451       .  S
C2672      C2675   1.452       .  S
C2673      N2680   1.157       .  T
C2674      N2679   1.158       .  T
C2675      N2677   1.157       .  T
C2676      N2678   1.157       .  T
C2681      C2682   1.409       .  A
C2681      C2686   1.410   1_655  A
C2682      C2683   1.416       .  A
C2682      C2687   1.450       .  S
C2683      C2690   1.450       .  S
C2684      C2685   1.415       .  A
C2685      C2688   1.451       .  S
C2687      N2694   1.157       .  T
C2688      N2693   1.157       .  T
C2689      N2691   1.156       .  T
C2690      N2692   1.157       .  T
C2695      C2696   1.421       .  A
C2696      C2697   1.419       .  A
C2696      C2701   1.451       .  S
C2697      C2704   1.449       .  S
C2698      C2699   1.422       .  A
C2699      C2700   1.415       .  A
C2699      C2702   1.452       .  S
C2700      C2703   1.451       .  S
C2701      N2708   1.157       .  T
C2702      N2707   1.158       .  T
C2703      N2705   1.157       .  T
C2704      N2706   1.157       .  T
C2709      C2710   1.412       .  A
C2709      C2714   1.421       .  A
C2710      C2711   1.413       .  A
C2710      C2715   1.446       .  S
C2711      C2712   1.416       .  A
C2712      C2713   1.411       .  A
C2713      C2714   1.418       .  A
C2713      C2716   1.450       .  S
C2714      C2717   1.451       .  S
C2715      N2722   1.155       .  T
C2716      N2721   1.157       .  T
C2717      N2719   1.157       .  T
C2718      N2720   1.157       .  T
C2723      C2728   1.403       .  A
C2724      C2725   1.416       .  A
C2724      C2729   1.453       .  S
C2725      C2726   1.429       .  A
C2725      C2732   1.451       .  S
C2727      C2728   1.415       .  A
C2727      C2730   1.450       .  S
C2728      C2731   1.452   1_545  S
C2729      N2736   1.157       .  T
C2730      N2735   1.157       .  T
C2731      N2733   1.157       .  T
C2732      N2734   1.158       .  T
C2737      C2738   1.414       .  A
C2737      C2742   1.415       .  A
C2738      C2743   1.453       .  S
C2739      C2746   1.446   1_455  S
C2740      C2741   1.414       .  A
C2741      C2742   1.410       .  A
C2741      C2744   1.449       .  S
C2742      C2745   1.453       .  S
C2744      N2749   1.156       .  T
C2745      N2747   1.157       .  T
C2746      N2748   1.155       .  T
C2751      C2752   1.411       .  A
C2751      C2756   1.408       .  A
C2752      C2753   1.409       .  A
C2752      C2757   1.449       .  S
C2753      C2754   1.410       .  A
C2753      C2760   1.452       .  S
C2754      C2755   1.412       .  A
C2755      C2756   1.410       .  A
C2755      C2758   1.451       .  S
C2756      C2759   1.449       .  S
C2757      N2764   1.157       .  T
C2758      N2763   1.157       .  T
C2759      N2761   1.157       .  T
C2760      N2762   1.157       .  T
C2765      C2766   1.407       .  A
C2765      C2770   1.413       .  A
C2766      C2767   1.407       .  A
C2766      C2771   1.450       .  S
C2767      C2768   1.414       .  A
C2768      C2769   1.407       .  A
C2769      C2770   1.407       .  A
C2769      C2772   1.451       .  S
C2770      C2773   1.451       .  S
C2771      N2778   1.157       .  T
C2772      N2777   1.157       .  T
C2773      N2775   1.157       .  T
C2774      N2776   1.157       .  T
C2779      C2780   1.424       .  A
C2779      C2784   1.412       .  A
C2780      C2781   1.409       .  A
C2780      C2785   1.453       .  S
C2781      C2782   1.410       .  A
C2781      C2788   1.451       .  S
C2782      C2783   1.420       .  A
C2783      C2784   1.409       .  A
C2783      C2786   1.453       .  S
C2784      C2787   1.450       .  S
C2785      N2792   1.157       .  T
C2786      N2791   1.157       .  T
C2787      N2789   1.157       .  T
C2788      N2790   1.158       .  T
C2793      C2794   1.410       .  A
C2793      C2798   1.407       .  A
C2794      C2799   1.448       .  S
C2795      C2796   1.428       .  A
C2795      C2802   1.449       .  S
C2797      C2798   1.413       .  A
C2797      C2800   1.452   1_655  S
C2798      C2801   1.452       .  S
C2799      N2806   1.156       .  T
C2800      N2805   1.157       .  T
C2801      N2803   1.157       .  T
C2802      N2804   1.158       .  T
C2807      C2808   1.424       .  A
C2807      C2812   1.426       .  A
C2808      C2813   1.451       .  S
C2809      C2816   1.452       .  S
C2810      C2811   1.404       .  A
C2811      C2812   1.410       .  A
C2811      C2814   1.454       .  S
C2812      C2815   1.449       .  S
C2813      N2820   1.158       .  T
C2814      N2819   1.157       .  T
C2815      N2817   1.156       .  T
C2816      N2818   1.157       .  T
C2821      C2826   1.428       .  A
C2822      C2823   1.409       .  A
C2822      C2827   1.454       .  S
C2823      C2824   1.417       .  A
C2823      C2830   1.453       .  S
C2825      C2826   1.419       .  A
C2825      C2828   1.451       .  S
C2826      C2829   1.451       .  S
C2827      N2834   1.158       .  T
C2828      N2833   1.157       .  T
C2829      N2831   1.158       .  T
C2830      N2832   1.157       .  T
C2835      C2836   1.409       .  A
C2836      C2841   1.452       .  S
C2837      C2838   1.424       .  A
C2837      C2844   1.450       .  S
C2838      C2839   1.427       .  A
C2839      C2840   1.413       .  A
C2839      C2842   1.450       .  S
C2840      C2843   1.453       .  S
C2841      N2848   1.157       .  T
C2842      N2847   1.157       .  T
C2843      N2845   1.157       .  T
C2844      N2846   1.157       .  T
C2849      C2850   1.427       .  A
C2849      C2854   1.423       .  A
C2850      C2851   1.413       .  A
C2850      C2855   1.454       .  S
C2851      C2852   1.417       .  A
C2851      C2858   1.454       .  S
C2852      C2853   1.415       .  A
C2853      C2854   1.416       .  A
C2853      C2856   1.451       .  S
C2854      C2857   1.452       .  S
C2856      N2861   1.157       .  T
C2857      N2859   1.158       .  T
C2858      N2860   1.158       .  T
C2863      C2868   1.418       .  A
C2864      C2865   1.414       .  A
C2864      C2869   1.451       .  S
C2865      C2866   1.405       .  A
C2865      C2872   1.451       .  S
C2866      C2867   1.409       .  A
C2868      C2871   1.450       .  S
C2869      N2876   1.157       .  T
C2870      N2875   1.157       .  T
C2871      N2873   1.157       .  T
C2872      N2874   1.157       .  T
C2877      C2878   1.415       .  A
C2877      C2882   1.409       .  A
C2878      C2879   1.410       .  A
C2878      C2883   1.450       .  S
C2879      C2880   1.414       .  A
C2879      C2886   1.453       .  S
C2880      C2881   1.418       .  A
C2881      C2882   1.405       .  A
C2882      C2885   1.453       .  S
C2883      N2890   1.156       .  T
C2884      N2889   1.157       .  T
C2885      N2887   1.157       .  T
C2886      N2888   1.157       .  T
C2891      C2892   1.428       .  A
C2891      C2896   1.411       .  A
C2892      C2893   1.410       .  A
C2892      C2897   1.452       .  S
C2893      C2894   1.407       .  A
C2893      C2900   1.454       .  S
C2894      C2895   1.418       .  A
C2895      C2896   1.409       .  A
C2895      C2898   1.452       .  S
C2896      C2899   1.451       .  S
C2897      N2904   1.158       .  T
C2898      N2903   1.157       .  T
C2899      N2901   1.157       .  T
C2900      N2902   1.158       .  T
C2905      C2906   1.421       .  A
C2905      C2910   1.429       .  A
C2906      C2907   1.410       .  A
C2906      C2911   1.454       .  S
C2907      C2908   1.419       .  A
C2907      C2914   1.455       .  S
C2908      C2909   1.408       .  A
C2909      C2910   1.417       .  A
C2909      C2912   1.451       .  S
C2910      C2913   1.452       .  S
C2911      N2918   1.158       .  T
C2912      N2917   1.157       .  T
C2913      N2915   1.158       .  T
C2914      N2916   1.158       .  T
C2919      C2920   1.406       .  A
C2919      C2924   1.411       .  A
C2920      C2925   1.450       .  S
C2921      C2922   1.411       .  A
C2921      C2928   1.450       .  S
C2923      C2924   1.412       .  A
C2923      C2926   1.450       .  S
C2924      C2927   1.448       .  S
C2925      N2932   1.157       .  T
C2926      N2931   1.157       .  T
C2927      N2929   1.157       .  T
C2928      N2930   1.157       .  T
C2933      C2938   1.406   1_545  A
C2934      C2935   1.415       .  A
C2934      C2939   1.450       .  S
C2935      C2936   1.419       .  A
C2935      C2942   1.451       .  S
C2937      C2938   1.415   1_545  A
C2937      C2940   1.449       .  S
C2938      C2941   1.450       .  S
C2939      N2946   1.156       .  T
C2940      N2945   1.158       .  T
C2941      N2943   1.157       .  T
C2942      N2944   1.157       .  T
C2947      C2948   1.411       .  A
C2947      C2952   1.419       .  A
C2948      C2949   1.419       .  A
C2948      C2953   1.450       .  S
C2949      C2950   1.425       .  A
C2949      C2956   1.451       .  S
C2950      C2951   1.417       .  A
C2951      C2952   1.407       .  A
C2951      C2954   1.450       .  S
C2954      N2959   1.156       .  T
C2955      N2957   1.158       .  T
C2956      N2958   1.158       .  T
C2961      C2962   1.421       .  A
C2961      C2966   1.430       .  A
C2962      C2963   1.417       .  A
C2962      C2967   1.450       .  S
C2963      C2964   1.409       .  A
C2963      C2970   1.449       .  S
C2964      C2965   1.405       .  A
C2965      C2966   1.412       .  A
C2965      C2968   1.454       .  S
C2966      C2969   1.453       .  S
C2967      N2974   1.158       .  T
C2968      N2973   1.157       .  T
C2969      N2971   1.157       .  T
C2970      N2972   1.157       .  T
C2975      C2976   1.424       .  A
C2975      C2980   1.424       .  A
C2976      C2977   1.412       .  A
C2976      C2981   1.452       .  S
C2977      C2978   1.408       .  A
C2977      C2984   1.453       .  S
C2978      C2979   1.407       .  A
C2979      C2980   1.414       .  A
C2979      C2982   1.451       .  S
C2980      C2983   1.451       .  S
C2981      N2988   1.158       .  T
C2982      N2987   1.157       .  T
C2983      N2985   1.158       .  T
C2984      N2986   1.157   1_556  T
C2989      C2990   1.405       .  A
C2989      C2994   1.406       .  A
C2990      C2995   1.449       .  S
C2991      C2992   1.429       .  A
C2991      C2998   1.450       .  S
C2993      C2994   1.415       .  A
C2994      C2997   1.453       .  S
C2995      N3002   1.156       .  T
C2996      N3001   1.158       .  T
C2997      N2999   1.157       .  T
C2998      N3000   1.158       .  T
C3003      C3004   1.408       .  A
C3003      C3008   1.410       .  A
C3004      C3005   1.414       .  A
C3004      C3009   1.453       .  S
C3005      C3006   1.425       .  A
C3005      C3012   1.449       .  S
C3006      C3007   1.422       .  A
C3007      C3008   1.419       .  A
C3007      C3010   1.450       .  S
C3008      C3011   1.449       .  S
C3009      N3016   1.157       .  T
C3010      N3015   1.157       .  T
C3011      N3013   1.156       .  T
C3012      N3014   1.157       .  T
C3017      C3018   1.417       .  A
C3017      C3022   1.423       .  A
C3018      C3019   1.409       .  A
C3018      C3023   1.452       .  S
C3019      C3020   1.414       .  A
C3019      C3026   1.453       .  S
C3020      C3021   1.409       .  A
C3021      C3022   1.411       .  A
C3022      C3025   1.452       .  S
C3024      N3029   1.157       .  T
C3025      N3027   1.158       .  T
C3026      N3028   1.157       .  T
C3031      C3032   1.412       .  A
C3031      C3036   1.406       .  A
C3032      C3033   1.404       .  A
C3032      C3037   1.451       .  S
C3033      C3034   1.413       .  A
C3033      C3040   1.451       .  S
C3034      C3035   1.426       .  A
C3035      C3036   1.411       .  A
C3035      C3038   1.450       .  S
C3036      C3039   1.452       .  S
C3037      N3044   1.156       .  T
C3038      N3043   1.157       .  T
C3039      N3041   1.157       .  T
C3040      N3042   1.157       .  T
C3045      C3046   1.411       .  A
C3045      C3050   1.406       .  A
C3046      C3047   1.410       .  A
C3046      C3051   1.450   1_655  S
C3047      C3048   1.420       .  A
C3047      C3054   1.452       .  S
C3048      C3049   1.421       .  A
C3049      C3050   1.408       .  A
C3049      C3052   1.448   1_556  S
C3050      C3053   1.454       .  S
C3052      N3057   1.156       .  T
C3053      N3055   1.157       .  T
C3054      N3056   1.158       .  T
C3059      C3060   1.431       .  A
C3059      C3064   1.418       .  A
C3060      C3061   1.418       .  A
C3060      C3065   1.451       .  S
C3061      C3062   1.405       .  A
C3061      C3068   1.451       .  S
C3062      C3063   1.414       .  A
C3063      C3064   1.408       .  A
C3063      C3066   1.451       .  S
C3064      C3067   1.453   1_554  S
C3065      N3072   1.158       .  T
C3066      N3071   1.156       .  T
C3067      N3069   1.158       .  T
C3068      N3070   1.158       .  T
