geometry optimzed in LAMMPS
_audit_creation_date              2020-12-01 
_audit_creation_method            'lammps2cif' 
_symmetry_space_group_name_H-M    'P1' 
_symmetry_Int_Tables_number       1 
_symmetry_cell_setting            triclinic 
loop_ 
_symmetry_equiv_pos_as_xyz 
  x,y,z 
_cell_length_a                    54.1288449 
_cell_length_b                    54.39276471796186 
_cell_length_c                    29.752881725761974 
_cell_angle_alpha                 90.0641688067569 
_cell_angle_beta                  90.0510399208988 
_cell_angle_gamma                 90.25166698105471 
loop_ 
_atom_site_label 
_atom_site_type_symbol 
_atom_site_fract_x 
_atom_site_fract_y 
_atom_site_fract_z 
_atom_site_charge 
Fe1        Fe  0.15400840  0.34112041  0.82564554     1.65800
Fe2        Fe  0.09927701  0.36035254  0.86892066     1.73200
Fe3        Fe  0.10080674  0.30953179  0.80103152     1.54400
O4          O  0.11761801  0.31703471  0.74059755    -0.81500
O5          O  0.07643223  0.33364985  0.89552221    -0.79900
O6          O  0.15429588  0.33248476  0.75821934    -0.84100
O7          O  0.16041822  0.30516326  0.84330411    -0.78900
O8          O  0.07210401  0.33160662  0.78000752    -0.80700
O9          O  0.12242660  0.35606047  0.92373294    -0.83400
C10         C  0.14906219  0.28510347  0.83570808     0.97300
C11         C  0.13873438  0.32495347  0.72942599     1.04800
O12         O  0.11800169  0.33689120  0.83205238    -1.12400
O13         O  0.11917788  0.39073789  0.84770766    -0.74800
O14         O  0.15105774  0.37747060  0.80724925    -0.78300
O15         O  0.12767270  0.28411215  0.81808215    -0.79000
C16         C  0.13776603  0.39462897  0.82274494     0.96200
O17         O  0.15936784  0.35111330  0.89197118    -0.77000
O18         O  0.07445528  0.36705957  0.81765278    -0.82200
C19         C  0.07156884  0.31110057  0.88896403     0.98900
C20         C  0.06495986  0.35345050  0.78744794     1.04800
O21         O  0.08095573  0.29880256  0.85709413    -0.77800
C22         C  0.14584458  0.35512801  0.92594989     1.03100
Fe23       Fe  0.33524083  0.16034959  0.84431698     1.65800
Fe24       Fe  0.35491419  0.10603954  0.88536262     1.73200
Fe25       Fe  0.30328006  0.10805441  0.82116931     1.54400
O26         O  0.27865195  0.13695089  0.83129345    -0.81500
O27         O  0.36183153  0.08281828  0.83231892    -0.79900
O28         O  0.29978452  0.16709252  0.86469681    -0.84100
O29         O  0.32468863  0.16030036  0.77805242    -0.78900
O30         O  0.29154380  0.09226917  0.88052169    -0.80700
O31         O  0.38534098  0.12691772  0.86573659    -0.83400
C32         C  0.31992147  0.14374125  0.74925018     0.97300
C33         C  0.27971567  0.15782751  0.85053596     1.04800
O34         O  0.33103121  0.12486154  0.85053110    -1.12400
O35         O  0.34973526  0.12794495  0.94098137    -0.74800
O36         O  0.34648286  0.16502196  0.90998394    -0.78300
O37         O  0.31342074  0.12211884  0.75997241    -0.79000
C38         C  0.34925263  0.15121572  0.94397980     0.96200
O39         O  0.37112113  0.15703463  0.82243940    -0.77000
O40         O  0.32814617  0.08208135  0.90946247    -0.82200
C41         C  0.34652281  0.07061010  0.80890603     0.98900
C42         C  0.30479171  0.07970564  0.90709127     1.04800
O43         O  0.32392558  0.07687605  0.80589920    -0.77800
C44         C  0.38871286  0.14437039  0.83807204     1.03100
Fe45       Fe  0.15084408  0.69789722  0.19754024     1.65800
Fe46       Fe  0.09563144  0.67847188  0.15561371     1.73200
Fe47       Fe  0.09818900  0.73024189  0.22187764     1.54400
O48         O  0.11491366  0.72280668  0.28262307    -0.81500
O49         O  0.07917462  0.70654411  0.12035362    -0.79900
O50         O  0.14918047  0.70187661  0.26588683    -0.84100
O51         O  0.15897394  0.73457523  0.18870516    -0.78900
O52         O  0.06815267  0.70965407  0.24326827    -0.80700
O53         O  0.12182729  0.67589544  0.10561242    -0.83400
C54         C  0.14761973  0.75470581  0.19333043     0.97300
C55         C  0.13463114  0.71181719  0.29385934     1.04800
O56         O  0.11483732  0.70224077  0.19178564    -1.12400
O57         O  0.11012795  0.64821733  0.18792726    -0.74800
O58         O  0.14822780  0.66012635  0.20663116    -0.78300
O59         O  0.12524794  0.75577464  0.20561969    -0.79000
C60         C  0.13155291  0.64373007  0.20301885     0.96200
O61         O  0.15630513  0.69373213  0.12988874    -0.77000
O62         O  0.06641539  0.67672211  0.19929011    -0.82200
C63         C  0.07384718  0.72893650  0.12796277     0.98900
C64         C  0.05796804  0.68973933  0.23087068     1.04800
O65         O  0.07985680  0.74011309  0.16387531    -0.77800
C66         C  0.14400223  0.68274800  0.09981615     1.03100
Fe67       Fe  0.33493842  0.88393139  0.21452890     1.65800
Fe68       Fe  0.35338944  0.93876667  0.17327803     1.73200
Fe69       Fe  0.29973922  0.93465696  0.23076975     1.54400
O70         O  0.27703226  0.90399716  0.22019804    -0.81500
O71         O  0.35697706  0.96326780  0.22533691    -0.79900
O72         O  0.30060157  0.87494918  0.19014175    -0.84100
O73         O  0.32212415  0.88467669  0.27978187    -0.78900
O74         O  0.28923206  0.94815816  0.16886470    -0.80700
O75         O  0.38402455  0.92030480  0.19811777    -0.83400
C76         C  0.31591823  0.90160396  0.30692855     0.97300
C77         C  0.27958708  0.88330612  0.20078701     1.04800
O78         O  0.32931342  0.91904733  0.20600078    -1.12400
O79         O  0.35141011  0.91580649  0.11872634    -0.74800
O80         O  0.34846317  0.87879276  0.15016825    -0.78300
O81         O  0.30884233  0.92267332  0.29409853    -0.79000
C82         C  0.35149508  0.89254717  0.11610250     0.96200
O83         O  0.36992042  0.88949660  0.24009702    -0.77000
O84         O  0.32626869  0.96031171  0.14432603    -0.82200
C85         C  0.34001023  0.97554272  0.24417910     0.98900
C86         C  0.30280237  0.96113572  0.14336368     1.04800
O87         O  0.31780368  0.96780537  0.24498280    -0.77800
C88         C  0.38735153  0.90322624  0.22653260     1.03100
Fe89       Fe  0.68417452  0.15658856  0.21312276     1.65800
Fe90       Fe  0.66792571  0.10257302  0.16500624     1.73200
Fe91       Fe  0.72105726  0.10632887  0.22616369     1.54400
O92         O  0.74324320  0.13689029  0.21398083    -0.81500
O93         O  0.66473942  0.07572487  0.21295465    -0.79900
O94         O  0.71849226  0.16707416  0.19108324    -0.84100
O95         O  0.69631862  0.15484853  0.27857801    -0.78900
O96         O  0.73174622  0.09247701  0.16457486    -0.80700
O97         O  0.63669147  0.11921694  0.19084852    -0.83400
C98         C  0.70542219  0.13881851  0.30452925     0.97300
C99         C  0.73981401  0.15825254  0.19789317     1.04800
O100        O  0.69107874  0.12179179  0.20155168    -1.12400
O101        O  0.66928459  0.12748329  0.11362711    -0.74800
O102        O  0.67074835  0.16340225  0.14915806    -0.78300
O103        O  0.71345811  0.11838520  0.29022202    -0.79000
C104        C  0.66733372  0.15065753  0.11391603     0.96200
O105        O  0.64906513  0.14937107  0.23639758    -0.77000
O106        O  0.69549607  0.08332605  0.13336427    -0.82200
C107        C  0.68107760  0.06519830  0.23656105     0.98900
C108        C  0.71886949  0.08232270  0.13408595     1.04800
O109        O  0.70283572  0.07368867  0.24169169    -0.77800
C110        C  0.63230723  0.13577042  0.21978140     1.03100
Fe111      Fe  0.86880661  0.34089738  0.19677481     1.65800
Fe112      Fe  0.92125607  0.36350808  0.14883044     1.73200
Fe113      Fe  0.92281696  0.30880270  0.20332722     1.54400
O114        O  0.91246757  0.31508566  0.26911695    -0.81500
O115        O  0.94073844  0.33828990  0.11123733    -0.79900
O116        O  0.87373117  0.32868111  0.26158740    -0.84100
O117        O  0.86087151  0.30612821  0.17421031    -0.78900
O118        O  0.95527191  0.32823150  0.21555962    -0.80700
O119        O  0.89493873  0.36299824  0.09957975    -0.83400
C120        C  0.87165080  0.28582431  0.18040451     0.97300
C121        C  0.89167180  0.32123113  0.28542129     1.04800
O122        O  0.90422754  0.33780585  0.18304516    -1.12400
O123        O  0.90365276  0.39206848  0.18128186    -0.74800
O124        O  0.87240520  0.37626494  0.22067341    -0.78300
O125        O  0.89368648  0.28438108  0.19463809    -0.79000
C126        C  0.88585618  0.39421917  0.20871260     0.96200
O127        O  0.85944384  0.35359321  0.13377419    -0.77000
O128        O  0.94967440  0.36675674  0.19434290    -0.82200
C129        C  0.94241455  0.31507834  0.10816614     0.98900
C130        C  0.96270798  0.35033218  0.21288048     1.04800
O131        O  0.93436676  0.30070791  0.13858340    -0.77800
C132        C  0.87170342  0.36034931  0.09968760     1.03100
Fe133      Fe  0.87271648  0.69488264  0.82726205     1.65800
Fe134      Fe  0.92597916  0.67471840  0.87452955     1.73200
Fe135      Fe  0.92636454  0.72618639  0.81006243     1.54400
O136        O  0.91432563  0.71614314  0.74716651    -0.81500
O137        O  0.94681780  0.70193574  0.90533474    -0.79900
O138        O  0.87520709  0.70543200  0.76041830    -0.84100
O139        O  0.86601982  0.73012240  0.84790686    -0.78900
O140        O  0.95821671  0.70613129  0.79807214    -0.80700
O141        O  0.90107600  0.67752694  0.92640370    -0.83400
C142        C  0.87647621  0.75010751  0.83706533     0.97300
C143        C  0.89296005  0.70996389  0.73368458     1.04800
O144        O  0.90834733  0.69855634  0.83746775    -1.12400
O145        O  0.90724707  0.64472919  0.84781584    -0.74800
O146        O  0.87614162  0.65914173  0.80639594    -0.78300
O147        O  0.89744149  0.75089436  0.81793316    -0.79000
C148        C  0.88944795  0.64163910  0.82047211     0.96200
O149        O  0.86508883  0.68336447  0.89207183    -0.77000
O150        O  0.95288673  0.66904708  0.82698065    -0.82200
C151        C  0.94948797  0.72516546  0.90256828     0.98900
C152        C  0.96529847  0.68415081  0.80364713     1.04800
O153        O  0.94011438  0.73775929  0.87104813    -0.77800
C154        C  0.87767628  0.67840731  0.92683715     1.03100
Fe155      Fe  0.68930929  0.87770045  0.84095556     1.65800
Fe156      Fe  0.67178005  0.93053797  0.89114330     1.73200
Fe157      Fe  0.72361221  0.92988613  0.82774869     1.54400
O158        O  0.74698090  0.89957750  0.83234698    -0.81500
O159        O  0.66610594  0.95674294  0.84275075    -0.79900
O160        O  0.72458325  0.86863249  0.85949092    -0.84100
O161        O  0.69949572  0.88133900  0.77431190    -0.78900
O162        O  0.73577427  0.94150599  0.89007284    -0.80700
O163        O  0.64070131  0.91245888  0.86774962    -0.83400
C164        C  0.70551415  0.89930014  0.74926704     0.97300
C165        C  0.74515855  0.87794738  0.84821246     1.04800
O166        O  0.69494037  0.91260421  0.85335283    -1.12400
O167        O  0.67556276  0.90575514  0.94220070    -0.74800
O168        O  0.67817881  0.86982471  0.90621804    -0.78300
O169        O  0.71317082  0.91982540  0.76411057    -0.79000
C170        C  0.67560609  0.88246123  0.94187513     0.96200
O171        O  0.65334841  0.88319915  0.82089851    -0.77000
O172        O  0.69949295  0.95112288  0.92051196    -0.82200
C173        C  0.68219106  0.96957338  0.82257331     0.98900
C174        C  0.72295500  0.95211270  0.92001168     1.04800
O175        O  0.70457958  0.96284568  0.81858804    -0.77800
C176        C  0.63642416  0.89584205  0.83886914     1.03100
Fe177      Fe  0.37185867  0.20175483  0.34409827     1.65800
Fe178      Fe  0.42615287  0.18164047  0.38865707     1.73200
Fe179      Fe  0.42565073  0.23351610  0.32309305     1.54400
O180        O  0.40919903  0.22637291  0.26156270    -0.81500
O181        O  0.44536065  0.20887846  0.42194710    -0.79900
O182        O  0.37484885  0.20468539  0.27581957    -0.84100
O183        O  0.36452291  0.23853301  0.35099989    -0.78900
O184        O  0.45508502  0.21201917  0.30274804    -0.80700
O185        O  0.40037761  0.18265488  0.43929057    -0.83400
C186        C  0.37645070  0.25853763  0.34917298     0.97300
C187        C  0.39018398  0.21440967  0.24891879     1.04800
O188        O  0.40792512  0.20566004  0.35189957    -1.12400
O189        O  0.40946128  0.15116046  0.36026459    -0.74800
O190        O  0.37288819  0.16404383  0.33643089    -0.78300
O191        O  0.39921879  0.25945473  0.33945481    -0.79000
C192        C  0.38826708  0.14702539  0.34377910     0.96200
O193        O  0.36571590  0.19843073  0.41167634    -0.77000
O194        O  0.45414686  0.17755896  0.34282988    -0.82200
C195        C  0.45055770  0.23144625  0.41623960     0.98900
C196        C  0.46385240  0.19119826  0.31319816     1.04800
O197        O  0.44408543  0.24334050  0.38148906    -0.77800
C198        C  0.37821648  0.18976663  0.44387405     1.03100
Fe199      Fe  0.18832091  0.38092752  0.32093811     1.65800
Fe200      Fe  0.16755962  0.43309731  0.37086031     1.73200
Fe201      Fe  0.22069108  0.43450785  0.31011098     1.54400
O202        O  0.24524697  0.40533414  0.31791913    -0.81500
O203        O  0.16280316  0.46086813  0.32489237    -0.79900
O204        O  0.22348588  0.37313663  0.34221609    -0.84100
O205        O  0.20009636  0.38470125  0.25544945    -0.78900
O206        O  0.23102671  0.44709521  0.37293894    -0.80700
O207        O  0.13779118  0.41520400  0.34147348    -0.83400
C208        C  0.20577606  0.40270061  0.23039793     0.97300
C209        C  0.24388637  0.38364123  0.33365774     1.04800
O210        O  0.19221113  0.41615756  0.33416921    -1.12400
O211        O  0.16937667  0.40720271  0.42076069    -0.74800
O212        O  0.17587115  0.37200349  0.38452224    -0.78300
O213        O  0.21187095  0.42372387  0.24545791    -0.79000
C214        C  0.17033482  0.38394769  0.41968967     0.96200
O215        O  0.15259387  0.38526685  0.29809477    -0.77000
O216        O  0.19428788  0.45322888  0.40488723    -0.82200
C217        C  0.17880457  0.47372824  0.30459393     0.98900
C218        C  0.21765710  0.45579795  0.40420745     1.04800
O219        O  0.20096197  0.46671073  0.29916584    -0.77800
C220        C  0.13489356  0.39838024  0.31226769     1.03100
Fe221      Fe  0.84606625  0.38002948  0.69244591     1.65800
Fe222      Fe  0.85777833  0.43352437  0.63723951     1.73200
Fe223      Fe  0.80766723  0.42912292  0.70723279     1.54400
O224        O  0.78477573  0.39956996  0.69276377    -0.81500
O225        O  0.85737670  0.46473401  0.67644567    -0.79900
O226        O  0.81003594  0.36754315  0.69585553    -0.84100
O227        O  0.84646763  0.38724902  0.76003015    -0.78900
O228        O  0.79555707  0.44532635  0.64849394    -0.80700
O229        O  0.89064419  0.42424175  0.66760596    -0.83400
C230        C  0.83260996  0.40029172  0.78471071     0.97300
C231        C  0.78853675  0.37660475  0.69412560     1.04800
O232        O  0.83712294  0.41429776  0.67893619    -1.12400
O233        O  0.86075654  0.40462327  0.59260415    -0.74800
O234        O  0.84659139  0.37054364  0.62560873    -0.78300
O235        O  0.81630501  0.41481164  0.76954270    -0.79000
C236        C  0.85497319  0.38195022  0.59167964     0.96200
O237        O  0.88372595  0.38615959  0.69166516    -0.77000
O238        O  0.82767678  0.44542528  0.60173913    -0.82200
C239        C  0.84482782  0.47247594  0.70947099     0.98900
C240        C  0.80525036  0.44997283  0.61060796     1.04800
O241        O  0.82655890  0.46073879  0.72557819    -0.77800
C242        C  0.89806441  0.40403646  0.68352792     1.03100
Fe243      Fe  0.65368599  0.18996671  0.71070964     1.65800
Fe244      Fe  0.59818626  0.17325412  0.66714274     1.73200
Fe245      Fe  0.60369871  0.22732470  0.72538921     1.54400
O246        O  0.62050669  0.22262055  0.78736596    -0.81500
O247        O  0.58494605  0.20056864  0.62545745    -0.79900
O248        O  0.64945957  0.19387048  0.77877971    -0.84100
O249        O  0.66528436  0.22602714  0.70491151    -0.78900
O250        O  0.57278421  0.20950857  0.75100975    -0.80700
O251        O  0.62584253  0.16650657  0.62121131    -0.83400
C252        C  0.65536805  0.24696372  0.70105091     0.97300
C253        C  0.63658924  0.20804610  0.80329937     1.04800
O254        O  0.61842590  0.19693698  0.70110913    -1.12400
O255        O  0.60916624  0.14339796  0.70540701    -0.74800
O256        O  0.64861938  0.15252663  0.71800349    -0.78300
O257        O  0.63216611  0.24980854  0.70294601    -0.79000
C258        C  0.63082968  0.13732439  0.71712310     0.96200
O259        O  0.66027963  0.18524470  0.64318767    -0.77000
O260        O  0.56768513  0.17646218  0.70785202    -0.82200
C261        C  0.57972870  0.22315338  0.63080722     0.98900
C262        C  0.56031745  0.19092917  0.73834153     1.04800
O263        O  0.58515821  0.23497063  0.66637600    -0.77800
C264        C  0.64802435  0.17302478  0.61430890     1.03100
Fe265      Fe  0.65171061  0.84246582  0.34301627     1.65800
Fe266      Fe  0.59876502  0.86122573  0.39489732     1.73200
Fe267      Fe  0.59770020  0.81015490  0.32779527     1.54400
O268        O  0.60949026  0.82005352  0.26422802    -0.81500
O269        O  0.58061871  0.83318942  0.42798953    -0.79900
O270        O  0.64662694  0.83739868  0.27521709    -0.84100
O271        O  0.66022616  0.80611979  0.35177822    -0.78900
O272        O  0.56585380  0.83027295  0.31645189    -0.80700
O273        O  0.62594646  0.86006732  0.44306531    -0.83400
C274        C  0.64909057  0.78613376  0.34359717     0.97300
C275        C  0.62934409  0.82981761  0.24985002     1.04800
O276        O  0.61612086  0.83790716  0.35537024    -1.12400
O277        O  0.61468798  0.89216037  0.36698013    -0.74800
O278        O  0.64878403  0.87966291  0.33247070    -0.78300
O279        O  0.62628601  0.78504724  0.33404973    -0.79000
C280        C  0.63406727  0.89647593  0.34444374     0.96200
O281        O  0.66078007  0.84843171  0.40923072    -0.77000
O282        O  0.56942305  0.86591353  0.35189608    -0.82200
C283        C  0.57724747  0.81015757  0.42368241     0.98900
C284        C  0.55762629  0.85137267  0.32639294     1.04800
O285        O  0.58412664  0.79821956  0.38914404    -0.77800
C286        C  0.64899974  0.85600450  0.44327184     1.03100
Fe287      Fe  0.83236579  0.65795436  0.32675924     1.65800
Fe288      Fe  0.85188966  0.60464417  0.37305996     1.73200
Fe289      Fe  0.79924719  0.60535025  0.31230841     1.54400
O290        O  0.77519695  0.63481444  0.31949703    -0.81500
O291        O  0.85716446  0.57914175  0.32321423    -0.79900
O292        O  0.79714007  0.66568421  0.34786091    -0.84100
O293        O  0.82140619  0.65504900  0.26002950    -0.78900
O294        O  0.78822076  0.59314232  0.37470639    -0.80700
O295        O  0.88218795  0.62393585  0.34917124    -0.83400
C296        C  0.81639574  0.63700633  0.23426375     0.97300
C297        C  0.77661704  0.65580855  0.33809441     1.04800
O298        O  0.82787319  0.62275345  0.33745349    -1.12400
O299        O  0.84852684  0.62868988  0.42569740    -0.74800
O300        O  0.84425609  0.66502454  0.39201508    -0.78300
O301        O  0.80922948  0.61620005  0.24865643    -0.79000
C302        C  0.84794774  0.65198327  0.42685014     0.96200
O303        O  0.86824867  0.65387702  0.30504478    -0.77000
O304        O  0.82498485  0.58265227  0.40205059    -0.82200
C305        C  0.84079763  0.56597917  0.30441770     0.98900
C306        C  0.80151746  0.58115909  0.40204520     1.04800
O307        O  0.81838446  0.57274470  0.30181565    -0.77800
C308        C  0.88573229  0.64149234  0.32185428     1.03100
Fe309      Fe  0.37215205  0.84605027  0.71294819     1.65800
Fe310      Fe  0.42615954  0.86293240  0.66209106     1.73200
Fe311      Fe  0.42506813  0.81334710  0.73330538     1.54400
O312        O  0.41099429  0.82286859  0.79522471    -0.81500
O313        O  0.44457009  0.83425720  0.63191939    -0.79900
O314        O  0.37525063  0.84164518  0.78119668    -0.84100
O315        O  0.36339984  0.80957954  0.70382420    -0.78900
O316        O  0.45569909  0.83430980  0.74858318    -0.80700
O317        O  0.39992997  0.86048408  0.61223093    -0.83400
C318        C  0.37447072  0.78948071  0.71084888     0.97300
C319        C  0.39144485  0.83353417  0.80804889     1.04800
O320        O  0.40780022  0.84075605  0.70274846    -1.12400
O321        O  0.41028325  0.89468173  0.68681861    -0.74800
O322        O  0.37627753  0.88331583  0.72357130    -0.78300
O323        O  0.39696489  0.78831681  0.72239393    -0.79000
C324        C  0.39149109  0.89958601  0.71052871     0.96200
O325        O  0.36449393  0.85139477  0.64602163    -0.77000
O326        O  0.45471592  0.86823803  0.70683991    -0.82200
C327        C  0.44870713  0.81168670  0.63957587     0.98900
C328        C  0.46451378  0.85495875  0.73686782     1.04800
O329        O  0.44152167  0.80086443  0.67501397    -0.77800
C330        C  0.37675569  0.85692686  0.61125107     1.03100
Fe331      Fe  0.18992943  0.65758891  0.70008109     1.65800
Fe332      Fe  0.17287670  0.60298118  0.65492130     1.73200
Fe333      Fe  0.22486634  0.60689636  0.71789360     1.54400
O334        O  0.24746840  0.63778875  0.71365845    -0.81500
O335        O  0.16868518  0.57729801  0.70479601    -0.79900
O336        O  0.22511319  0.66728493  0.68225013    -0.84100
O337        O  0.19935989  0.65552585  0.76692733    -0.78900
O338        O  0.23745655  0.59502287  0.65571194    -0.80700
O339        O  0.14135918  0.62003439  0.67894324    -0.83400
C340        C  0.20502916  0.63834783  0.79386706     0.97300
C341        C  0.24529386  0.65926453  0.69762562     1.04800
O342        O  0.19590463  0.62260377  0.69070260    -1.12400
O343        O  0.17476144  0.62695567  0.60181157    -0.74800
O344        O  0.17960300  0.66345956  0.63450124    -0.78300
O345        O  0.21318993  0.61762045  0.78093179    -0.79000
C346        C  0.17536662  0.65026604  0.60020613     0.96200
O347        O  0.15395175  0.65209588  0.71926824    -0.77000
O348        O  0.20136013  0.58324841  0.62618157    -0.82200
C349        C  0.18538348  0.56535801  0.72494010     0.98900
C350        C  0.22488926  0.58327233  0.62649510     1.04800
O351        O  0.20735095  0.57338376  0.72789910    -0.77800
C352        C  0.13708576  0.63778241  0.70551825     1.03100
C353        C  0.28509364  0.71583496  0.71502609    -0.22300
C354        C  0.30746456  0.70825327  0.69624672     0.09600
C355        C  0.30992569  0.68408779  0.67975662     0.10000
C356        C  0.28936446  0.66821237  0.68081815    -0.17300
C357        C  0.26668836  0.67605600  0.69858771    -0.27700
C358        C  0.26481779  0.69993284  0.71740665     0.18400
C359        C  0.32796917  0.72619428  0.69599322     0.12300
C360        C  0.33419803  0.67510989  0.66153760    -0.12000
H361        H  0.29089740  0.64974804  0.66740045     0.12600
C362        C  0.24230159  0.70906206  0.74217028    -0.22900
H363        H  0.28362457  0.73424461  0.72882457     0.08300
C364        C  0.33084884  0.74300938  0.66034813     0.04600
C365        C  0.34712567  0.76292738  0.66549065    -0.20100
C366        C  0.36023017  0.76654993  0.70570170    -0.12400
C367        C  0.35770943  0.74931006  0.74110360     0.13300
C368        C  0.34182980  0.72913283  0.73539132    -0.22800
C369        C  0.31596925  0.74050893  0.61774936    -0.05900
H370        H  0.34903759  0.77622013  0.63856910     0.14800
C371        C  0.36982990  0.75236463  0.78648923    -0.16100
H372        H  0.33903921  0.71641256  0.76299970     0.09200
H373        H  0.23432057  0.72497507  0.72398475     0.07000
H374        H  0.24776678  0.71510547  0.77645990     0.08200
H375        H  0.22775018  0.69494980  0.74648429     0.07300
H376        H  0.34857058  0.67640134  0.68809412     0.02100
H377        H  0.33992040  0.68650108  0.63242216     0.02600
H378        H  0.33297687  0.65566730  0.65027409     0.06100
H379        H  0.32039461  0.75534360  0.59338807     0.05100
H380        H  0.29594947  0.74148568  0.62558743    -0.00700
H381        H  0.31995393  0.72261576  0.60143419     0.00800
H382        H  0.35539698  0.75265313  0.81299758     0.04500
H383        H  0.38064386  0.76955162  0.79001255     0.06400
H384        H  0.38232173  0.73660621  0.79282399     0.07300
C385        C  0.69950483  0.74037838  0.31713242    -0.22300
C386        C  0.69434239  0.72162017  0.34790054     0.09600
C387        C  0.67336451  0.72335536  0.37581008     0.10000
C388        C  0.65821800  0.74428644  0.37290837    -0.17300
C389        C  0.66390936  0.76345653  0.34300706    -0.27700
C390        C  0.68449909  0.76115690  0.31397350     0.18400
C391        C  0.71220803  0.70116002  0.35098194     0.12300
C392        C  0.66712739  0.70321795  0.40856745    -0.12000
H393        H  0.64233760  0.74601548  0.39481545     0.12600
C394        C  0.69105726  0.77995325  0.27861473    -0.22900
H395        H  0.71554624  0.73883599  0.29549982     0.08300
C396        C  0.71329148  0.68276479  0.31764491     0.04600
C397        C  0.73390752  0.66723193  0.31584051    -0.20100
C398        C  0.75359077  0.66986746  0.34639252    -0.12400
C399        C  0.75129967  0.68689377  0.38233743     0.13300
C400        C  0.73065191  0.70240771  0.38392704    -0.22800
C401        C  0.69295644  0.67998823  0.28339994    -0.05900
H402        H  0.73521203  0.65383491  0.28894489     0.14800
C403        C  0.77033903  0.68883503  0.41926164    -0.16100
H404        H  0.72944842  0.71642042  0.40978080     0.09200
H405        H  0.69140395  0.77095157  0.24509517     0.07000
H406        H  0.70964700  0.78773378  0.28577550     0.08200
H407        H  0.67775683  0.79528735  0.27657750     0.07300
H408        H  0.68244459  0.70098991  0.43303693     0.02100
H409        H  0.66431791  0.68566305  0.39014013     0.02600
H410        H  0.64999224  0.70733837  0.42759716     0.06100
H411        H  0.69646047  0.66441463  0.26011666     0.05100
H412        H  0.69138971  0.69700544  0.26307790    -0.00700
H413        H  0.67515189  0.67649345  0.30081737     0.00800
H414        H  0.76428456  0.70146895  0.44642715     0.04500
H415        H  0.78799703  0.69618351  0.40589090     0.06400
H416        H  0.77340244  0.67046233  0.43448190     0.07300
C417        C  0.54548267  0.79973882  0.53447760    -0.22300
C418        C  0.52574879  0.78465011  0.52113608     0.09600
C419        C  0.52621499  0.77362248  0.47810024     0.10000
C420        C  0.54492028  0.78032359  0.44761635    -0.17300
C421        C  0.56325378  0.79748325  0.45968722    -0.27700
C422        C  0.56464331  0.80557233  0.50485741     0.18400
C423        C  0.50319537  0.78483074  0.54943048     0.12300
C424        C  0.50673626  0.75528848  0.46404529    -0.12000
H425        H  0.54413524  0.77352997  0.41338341     0.12600
C426        C  0.58585365  0.82071453  0.52268152    -0.22900
H427        H  0.54536746  0.80809550  0.56758541     0.08300
C428        C  0.50325975  0.77693588  0.59468173     0.04600
C429        C  0.48368666  0.78384150  0.62300420    -0.20100
C430        C  0.46410644  0.79825311  0.60681716    -0.12400
C431        C  0.46259193  0.80325707  0.56029251     0.13300
C432        C  0.48246485  0.79714252  0.53253271    -0.22800
C433        C  0.52412325  0.76175633  0.61328995    -0.05900
H434        H  0.48462421  0.77951522  0.65852313     0.14800
C435        C  0.44047167  0.81533695  0.53897564    -0.16100
H436        H  0.48224562  0.80311943  0.49777566     0.09200
H437        H  0.59349968  0.81183313  0.55324386     0.07000
H438        H  0.57937149  0.83944076  0.53153495     0.08200
H439        H  0.60116831  0.82208345  0.49820937     0.07300
H440        H  0.48823440  0.76391927  0.46345207     0.02100
H441        H  0.50653055  0.73967856  0.48805896     0.02600
H442        H  0.51041423  0.74783940  0.42994086     0.06100
H443        H  0.52070875  0.75643337  0.64878607     0.05100
H444        H  0.54175226  0.77217123  0.61223962    -0.00700
H445        H  0.52604328  0.74467693  0.59315045     0.00800
H446        H  0.44578600  0.83366268  0.52563127     0.04500
H447        H  0.42482864  0.81749898  0.56265277     0.06400
H448        H  0.43367959  0.80373498  0.51077747     0.07300
C449        C  0.74608092  0.32275395  0.72132518    -0.22300
C450        C  0.72808359  0.32497532  0.68774675     0.09600
C451        C  0.72911745  0.34506388  0.65782920     0.10000
C452        C  0.74873266  0.36206668  0.66121638    -0.17300
C453        C  0.76718275  0.35947148  0.69412876    -0.27700
C454        C  0.76532813  0.33995047  0.72553862     0.18400
C455        C  0.70801809  0.30627558  0.68597391     0.12300
C456        C  0.70958316  0.34843628  0.62237138    -0.12000
H457        H  0.74993974  0.37716391  0.63755588     0.12600
C458        C  0.78258379  0.33715901  0.76509080    -0.22900
H459        H  0.74483298  0.30765223  0.74500909     0.08300
C460        C  0.71088396  0.28398862  0.66236781     0.04600
C461        C  0.69279174  0.26551326  0.66652702    -0.20100
C462        C  0.67197062  0.26855981  0.69432121    -0.12400
C463        C  0.66902907  0.29124408  0.71752355     0.13300
C464        C  0.68691078  0.30985292  0.71229269    -0.22800
C465        C  0.73334115  0.27950920  0.63367595    -0.05900
H466        H  0.69523685  0.24828034  0.64875841     0.14800
C467        C  0.64853259  0.29628354  0.75058974    -0.16100
H468        H  0.68501930  0.32691931  0.73084837     0.09200
H469        H  0.79312581  0.31979552  0.76169729     0.07000
H470        H  0.77162595  0.33640930  0.79661182     0.08200
H471        H  0.79579674  0.35261124  0.76890265     0.07300
H472        H  0.69122926  0.35040244  0.63858023     0.02100
H473        H  0.70920246  0.33224680  0.59964576     0.02600
H474        H  0.71309324  0.36508996  0.60173339     0.06100
H475        H  0.73273350  0.26111281  0.61745704     0.05100
H476        H  0.75027334  0.28055490  0.65468747    -0.00700
H477        H  0.73445817  0.29360438  0.60680566     0.00800
H478        H  0.65667574  0.30187308  0.78334337     0.04500
H479        H  0.63649487  0.28033328  0.75760674     0.06400
H480        H  0.63693061  0.31156468  0.73788778     0.07300
C481        C  0.79091963  0.48250999  0.50294489    -0.22300
C482        C  0.77743874  0.50235109  0.51995520     0.09600
C483        C  0.76710906  0.50091953  0.56329068     0.10000
C484        C  0.77412269  0.48152213  0.59154755    -0.17300
C485        C  0.79077914  0.46349210  0.57657108    -0.27700
C486        C  0.79714188  0.46267307  0.53045218     0.18400
C487        C  0.77881756  0.52572376  0.49501292     0.12300
C488        C  0.74947317  0.52023612  0.57994368    -0.12000
H489        H  0.76827393  0.48170177  0.62636787     0.12600
C490        C  0.81108717  0.44161883  0.50963916    -0.22900
H491        H  0.79792385  0.48320873  0.46882245     0.08300
C492        C  0.79681735  0.54345767  0.50678890     0.04600
C493        C  0.80163994  0.56287338  0.47732570    -0.20100
C494        C  0.79017086  0.56424075  0.43504016    -0.12400
C495        C  0.77165924  0.54665609  0.42366875     0.13300
C496        C  0.76586448  0.52798611  0.45452829    -0.22800
C497        C  0.81261136  0.54077724  0.54840122    -0.05900
H498        H  0.81592751  0.57608766  0.48593426     0.14800
C499        C  0.75908010  0.54517032  0.37843676    -0.16100
H500        H  0.75255980  0.51387441  0.44533666     0.09200
H501        H  0.82980393  0.44786834  0.49936706     0.07000
H502        H  0.80100057  0.43493995  0.47945546     0.08200
H503        H  0.81271690  0.42572166  0.53271028     0.07300
H504        H  0.73298241  0.52062232  0.55774676     0.02100
H505        H  0.75827937  0.53866665  0.57965958     0.02600
H506        H  0.74318541  0.51633799  0.61474693     0.06100
H507        H  0.82646984  0.55581774  0.55133668     0.05100
H508        H  0.82276807  0.52309472  0.54719668    -0.00700
H509        H  0.80102108  0.54120705  0.57904557     0.00800
H510        H  0.76238266  0.52675664  0.36346564     0.04500
H511        H  0.76558234  0.55877213  0.35366991     0.06400
H512        H  0.73887620  0.54762695  0.38288132     0.07300
C513        C  0.22787593  0.49047379  0.51332108    -0.22300
C514        C  0.24434143  0.50877711  0.49896426     0.09600
C515        C  0.25564760  0.50673272  0.45649588     0.10000
C516        C  0.24798020  0.48789748  0.42717026    -0.17300
C517        C  0.22926663  0.47119354  0.43961476    -0.27700
C518        C  0.22015568  0.47165712  0.48424385     0.18400
C519        C  0.24549013  0.53166750  0.52586641     0.12300
C520        C  0.27533718  0.52468362  0.44199501    -0.12000
H521        H  0.25549941  0.48721922  0.39343702     0.12600
C522        C  0.20211335  0.45264916  0.50144338    -0.22900
H523        H  0.21969915  0.49192986  0.54648273     0.08300
C524        C  0.22914313  0.55108247  0.51612722     0.04600
C525        C  0.22559810  0.56962245  0.54804994    -0.20100
C526        C  0.23690629  0.56867678  0.59056922    -0.12400
C527        C  0.25483952  0.55023072  0.59894043     0.13300
C528        C  0.25897790  0.53204769  0.56610554    -0.22800
C529        C  0.21362733  0.55110546  0.47390172    -0.05900
H530        H  0.21207000  0.58381961  0.54133412     0.14800
C531        C  0.26867089  0.54769667  0.64268456    -0.16100
H532        H  0.27142859  0.51699660  0.57339710     0.09200
H533        H  0.18394356  0.45459161  0.48463593     0.07000
H534        H  0.19890539  0.45465113  0.53813875     0.08200
H535        H  0.20950854  0.43392623  0.49538771     0.07300
H536        H  0.29112916  0.52380355  0.46576698     0.02100
H537        H  0.26803860  0.54369087  0.44176743     0.02600
H538        H  0.28229729  0.52042720  0.40776486     0.06100
H539        H  0.20124213  0.56731342  0.47237921     0.05100
H540        H  0.20188709  0.53432617  0.47268347    -0.00700
H541        H  0.22561977  0.55157850  0.44375244     0.00800
H542        H  0.26465561  0.52942567  0.65766243     0.04500
H543        H  0.26402024  0.56176560  0.66796792     0.06400
H544        H  0.28882240  0.54900989  0.63609333     0.07300
C545        C  0.30815219  0.36152517  0.36805112    -0.22300
C546        C  0.30824677  0.33822320  0.34778425     0.09600
C547        C  0.28759161  0.33039473  0.32255808     0.10000
C548        C  0.26707696  0.34581691  0.31879780    -0.17300
C549        C  0.26665533  0.36903871  0.33934294    -0.27700
C550        C  0.28752238  0.37709812  0.36427584     0.18400
C551        C  0.32938749  0.32140200  0.35450841     0.12300
C552        C  0.28719639  0.30567629  0.29955261    -0.12000
H553        H  0.25120947  0.33973674  0.29940793     0.12600
C554        C  0.28835140  0.40133557  0.38883639    -0.22900
H555        H  0.32402633  0.36736708  0.38764209     0.08300
C556        C  0.34935746  0.32074764  0.32412702     0.04600
C557        C  0.36591463  0.30092772  0.32564720    -0.20100
C558        C  0.36264188  0.28163510  0.35648825    -0.12400
C559        C  0.34387094  0.28354752  0.38951701     0.13300
C560        C  0.32739919  0.30334288  0.38783153    -0.22800
C561        C  0.35237998  0.34028553  0.28873103    -0.05900
H562        H  0.38039573  0.29964353  0.30062570     0.14800
C563        C  0.34047818  0.26504508  0.42677500    -0.16100
H564        H  0.31218576  0.30411292  0.41147854     0.09200
H565        H  0.30354417  0.41285426  0.37508998     0.07000
H566        H  0.29190556  0.39802211  0.42508968     0.08200
H567        H  0.27091471  0.41179250  0.38632502     0.07300
H568        H  0.28904655  0.29081093  0.32484142     0.02100
H569        H  0.30271350  0.30450237  0.27528108     0.02600
H570        H  0.26970765  0.30255813  0.28080562     0.06100
H571        H  0.36887212  0.33696201  0.26742250     0.05100
H572        H  0.35456526  0.35851919  0.30509895    -0.00700
H573        H  0.33586554  0.34060088  0.26658953     0.00800
H574        H  0.34042257  0.27473021  0.45965083     0.04500
H575        H  0.35547746  0.25128624  0.42831779     0.06400
H576        H  0.32253600  0.25534720  0.42245322     0.07300
C577        C  0.48483974  0.24184788  0.52476337    -0.22300
C578        C  0.50546912  0.25498094  0.50932391     0.09600
C579        C  0.50520884  0.26498630  0.46557735     0.10000
C580        C  0.48555343  0.25906244  0.43649544    -0.17300
C581        C  0.46617895  0.24359405  0.45066506    -0.27700
C582        C  0.46487245  0.23667991  0.49645353     0.18400
C583        C  0.52833380  0.25339801  0.53653879     0.12300
C584        C  0.52590141  0.28130463  0.44937713    -0.12000
H585        H  0.48629047  0.26502434  0.40177513     0.12600
C586        C  0.44295135  0.22347394  0.51643254    -0.22900
H587        H  0.48482866  0.23443545  0.55858954     0.08300
C588        C  0.52958058  0.26260966  0.58079731     0.04600
C589        C  0.54792128  0.25379708  0.60990367    -0.20100
C590        C  0.56487484  0.23579255  0.59585034    -0.12400
C591        C  0.56526326  0.22878938  0.54997473     0.13300
C592        C  0.54692249  0.23766553  0.52100971    -0.22800
C593        C  0.51123054  0.28122648  0.59761681    -0.05900
H594        H  0.54789477  0.25981285  0.64463789     0.14800
C595        C  0.58439972  0.21153676  0.53129259    -0.16100
H596        H  0.54592494  0.23071245  0.48689192     0.09200
H597        H  0.43655435  0.23353781  0.54673466     0.07000
H598        H  0.44832202  0.20456849  0.52639856     0.08200
H599        H  0.42701240  0.22256329  0.49309120     0.07300
H600        H  0.54362566  0.27116590  0.44929816     0.02100
H601        H  0.52759129  0.29751296  0.47191697     0.02600
H602        H  0.52247248  0.28804169  0.41470956     0.06100
H603        H  0.51531987  0.28695526  0.63270136     0.05100
H604        H  0.49225094  0.27349585  0.59696958    -0.00700
H605        H  0.51194565  0.29783068  0.57598064     0.00800
H606        H  0.58142680  0.19280103  0.54480522     0.04500
H607        H  0.60320808  0.21820903  0.54011956     0.06400
H608        H  0.58326434  0.21020485  0.49408413     0.07300
C609        C  0.67613574  0.03829597  0.80351303    -0.22300
C610        C  0.65675401  0.03899243  0.77232140     0.09600
C611        C  0.64640994  0.01679774  0.75627414     0.10000
C612        C  0.65528281  0.99431913  0.77290607    -0.17300
C613        C  0.67456943  0.99360925  0.80448858    -0.27700
C614        C  0.68509603  0.01592540  0.82012386     0.18400
C615        C  0.64819741  0.06332140  0.75636308     0.12300
C616        C  0.62624518  0.01687315  0.72137671    -0.12000
H617        H  0.64721822  0.97719892  0.76111735     0.12600
C618        C  0.70500796  0.01703764  0.85560934    -0.22900
H619        H  0.68407480  0.05542236  0.81556530     0.08300
C620        C  0.62889974  0.07613054  0.77798526     0.04600
C621        C  0.62281758  0.09999071  0.76354293    -0.20100
C622        C  0.63616468  0.11147967  0.72896518    -0.12400
C623        C  0.65522987  0.09840114  0.70692127     0.13300
C624        C  0.66090185  0.07444152  0.72080189    -0.22800
C625        C  0.61529328  0.06489393  0.81708346    -0.05900
H626        H  0.60825032  0.11004805  0.78035187     0.14800
C627        C  0.66943089  0.10948666  0.66824735    -0.16100
H628        H  0.67568840  0.06445982  0.70446529     0.09200
H629        H  0.69854089  0.02834688  0.88434756     0.07000
H630        H  0.72188007  0.02567283  0.84131980     0.08200
H631        H  0.71002818  0.99882304  0.86920552     0.07300
H632        H  0.63297781  0.02612494  0.69045267     0.02100
H633        H  0.60988411  0.02684561  0.73428309     0.02600
H634        H  0.62035277  0.99792182  0.71227487     0.06100
H635        H  0.60090772  0.07743619  0.83041329     0.05100
H636        H  0.62849632  0.06085184  0.84465552    -0.00700
H637        H  0.60612008  0.04755613  0.80647816     0.00800
H638        H  0.68017806  0.12571149  0.67982317     0.04500
H639        H  0.65643174  0.11513833  0.64130942     0.06400
H640        H  0.68270603  0.09621064  0.65353450     0.07300
C641        C  0.67464932  0.86794553  0.06587560    -0.22300
C642        C  0.65503722  0.85111514  0.06766334     0.09600
C643        C  0.64386220  0.84277315  0.02765321     0.10000
C644        C  0.65217044  0.85211775  0.98640784    -0.17300
C645        C  0.67113934  0.86979649  0.98470478    -0.27700
C646        C  0.68309879  0.87719515  0.02483169     0.18400
C647        C  0.64647040  0.84293975  0.11222182     0.12300
C648        C  0.62298763  0.82439564  0.02866698    -0.12000
H649        H  0.64304461  0.84649480  0.95559460     0.12600
C650        C  0.70499365  0.89445897  0.02568606    -0.22900
H651        H  0.68338133  0.87395675  0.09684523     0.08300
C652        C  0.65996963  0.82561160  0.13726291     0.04600
C653        C  0.65297957  0.82070088  0.18162115    -0.20100
C654        C  0.63295148  0.83285812  0.20139880    -0.12400
C655        C  0.61907046  0.84987541  0.17598084     0.13300
C656        C  0.62591946  0.85451460  0.13136407    -0.22800
C657        C  0.68199271  0.81269849  0.11743245    -0.05900
H658        H  0.66365229  0.80786072  0.20144899     0.14800
C659        C  0.59799369  0.86450617  0.19540596    -0.16100
H660        H  0.61585237  0.86806681  0.11199004     0.09200
H661        H  0.72057107  0.88553743  0.04358370     0.07000
H662        H  0.69999364  0.91157205  0.04383681     0.08200
H663        H  0.71179553  0.89937107  0.99174133     0.07300
H664        H  0.60716261  0.83207320  0.04769839     0.02100
H665        H  0.62925609  0.80722878  0.04520994     0.02600
H666        H  0.61645792  0.81970243  0.99429682     0.06100
H667        H  0.69021926  0.79943891  0.14148292     0.05100
H668        H  0.69646047  0.82632356  0.10832591    -0.00700
H669        H  0.67627651  0.80242586  0.08685196     0.00800
H670        H  0.60228940  0.88444303  0.19287900     0.04500
H671        H  0.59430290  0.86035821  0.23121363     0.06400
H672        H  0.58087006  0.86059629  0.17606401     0.07300
C673        C  0.69365996  0.88308108  0.52839003    -0.22300
C674        C  0.68318601  0.87426626  0.56818545     0.09600
C675        C  0.66272072  0.85819816  0.56670407     0.10000
C676        C  0.65278052  0.85164930  0.52506383    -0.17300
C677        C  0.66255817  0.86107020  0.48502893    -0.27700
C678        C  0.68337370  0.87702086  0.48657041     0.18400
C679        C  0.69250273  0.88336799  0.61149921     0.12300
C680        C  0.65107012  0.84837631  0.60910941    -0.12000
H681        H  0.63693481  0.83952936  0.52381688     0.12600
C682        C  0.69434425  0.88933729  0.44570113    -0.22900
H683        H  0.70925470  0.89563654  0.53012029     0.08300
C684        C  0.71117237  0.87085108  0.63500886     0.04600
C685        C  0.71601582  0.87734228  0.67970954    -0.20100
C686        C  0.70260022  0.89609126  0.70081001    -0.12400
C687        C  0.68467899  0.90942631  0.67639726     0.13300
C688        C  0.68008848  0.90301084  0.63166633    -0.22800
C689        C  0.72526153  0.85018343  0.61334458    -0.05900
H690        H  0.72969165  0.86723138  0.69876880     0.14800
C691        C  0.66884405  0.92926252  0.69697965    -0.16100
H692        H  0.66564452  0.91239056  0.61319997     0.09200
H693        H  0.71374924  0.88325159  0.44135430     0.07000
H694        H  0.69422605  0.90958601  0.45055399     0.08200
H695        H  0.68419679  0.88558366  0.41418891     0.07300
H696        H  0.64411822  0.86381658  0.62991941     0.02100
H697        H  0.66494623  0.83788726  0.62867027     0.02600
H698        H  0.63525176  0.83592620  0.60173143     0.06100
H699        H  0.73922677  0.84231214  0.63653862     0.05100
H700        H  0.73500704  0.85712394  0.58305265    -0.00700
H701        H  0.71233166  0.83525741  0.60329500     0.00800
H702        H  0.67184567  0.94680215  0.67868599     0.04500
H703        H  0.67267789  0.93258382  0.73302243     0.06400
H704        H  0.64906535  0.92397293  0.69402091     0.07300
C705        C  0.56811977  0.88041068  0.84364445    -0.22300
C706        C  0.56163143  0.88266450  0.79829452     0.09600
C707        C  0.57967339  0.88937827  0.76635977     0.10000
C708        C  0.60406215  0.89345968  0.78056560    -0.17300
C709        C  0.61064523  0.89103890  0.82594135    -0.27700
C710        C  0.59249359  0.88426495  0.85793646     0.18400
C711        C  0.53638815  0.87559607  0.78446723     0.12300
C712        C  0.57318839  0.89196141  0.71735835    -0.12000
H713        H  0.61804892  0.89865183  0.75624465     0.12600
C714        C  0.59826718  0.87977808  0.90687446    -0.22900
H715        H  0.55421241  0.87478310  0.86780488     0.08300
C716        C  0.53063140  0.85089847  0.77462269     0.04600
C717        C  0.50667301  0.84477584  0.76088382    -0.20100
C718        C  0.48827871  0.86276726  0.75673428    -0.12400
C719        C  0.49383118  0.88746262  0.76838328     0.13300
C720        C  0.51800979  0.89359586  0.78160064    -0.22800
C721        C  0.54991705  0.83106575  0.77789064    -0.05900
H722        H  0.50249675  0.82588331  0.75192343     0.14800
C723        C  0.47474949  0.90758758  0.76887442    -0.16100
H724        H  0.52251922  0.91247520  0.79011956     0.09200
H725        H  0.59279705  0.86071612  0.91596044     0.07000
H726        H  0.58765285  0.89282954  0.92800321     0.08200
H727        H  0.61810791  0.88184314  0.91513078     0.07300
H728        H  0.55884578  0.90631516  0.71324956     0.02100
H729        H  0.56597676  0.87422521  0.70418913     0.02600
H730        H  0.58950241  0.89731887  0.69690737     0.06100
H731        H  0.54233059  0.81273976  0.76863920     0.05100
H732        H  0.55698965  0.82998753  0.81286143    -0.00700
H733        H  0.56548622  0.83527260  0.75485054     0.00800
H734        H  0.47458868  0.91647919  0.80249269     0.04500
H735        H  0.45572989  0.90084709  0.76257827     0.06400
H736        H  0.47950463  0.92163930  0.74322720     0.07300
C737        C  0.02708626  0.68195504  0.74051228    -0.22300
C738        C  0.03623773  0.65931246  0.75500617     0.09600
C739        C  0.02174930  0.64435291  0.78323805     0.10000
C740        C  0.99845083  0.65263160  0.79705573    -0.17300
C741        C  0.98930623  0.67582701  0.78402181    -0.27700
C742        C  0.00393703  0.69056575  0.75466727     0.18400
C743        C  0.06174188  0.65247081  0.74240436     0.12300
C744        C  0.03097182  0.61971797  0.79898953    -0.12000
H745        H  0.98764761  0.64103357  0.81923450     0.12600
C746        C  0.99587273  0.71550486  0.73827048    -0.22900
H747        H  0.03853414  0.69326802  0.71885961     0.08300
C748        C  0.06751775  0.64353173  0.69920914     0.04600
C749        C  0.09220208  0.63834161  0.68856322    -0.20100
C750        C  0.11130373  0.64239982  0.71981663    -0.12400
C751        C  0.10536193  0.65125214  0.76334045     0.13300
C752        C  0.08060568  0.65603627  0.77401327    -0.22800
C753        C  0.04764849  0.63956163  0.66443967    -0.05900
H754        H  0.09668251  0.63168083  0.65519492     0.14800
C755        C  0.12479028  0.65530980  0.79905372    -0.16100
H756        H  0.07589482  0.66298435  0.80708339     0.09200
H757        H  0.97794057  0.71393040  0.72044757     0.07000
H758        H  0.00936270  0.72365113  0.71436806     0.08200
H759        H  0.99427452  0.72841404  0.76702673     0.07300
H760        H  0.04813054  0.62214562  0.81898734     0.02100
H761        H  0.03491188  0.60783979  0.76950430     0.02600
H762        H  0.01717846  0.61014517  0.82043064     0.06100
H763        H  0.05529745  0.63218173  0.63255297     0.05100
H764        H  0.03840516  0.65725132  0.65683075    -0.00700
H765        H  0.03375280  0.62625668  0.67731734     0.00800
H766        H  0.13742827  0.67045379  0.78907357     0.04500
H767        H  0.13549619  0.63817829  0.80427749     0.06400
H768        H  0.11646366  0.66054491  0.83178299     0.07300
C769        C  0.83236787  0.79695869  0.88560298    -0.22300
C770        C  0.82885535  0.81215199  0.84819521     0.09600
C771        C  0.84359862  0.80893561  0.80960290     0.10000
C772        C  0.86064435  0.78958146  0.80837075    -0.17300
C773        C  0.86282036  0.77315809  0.84453125    -0.27700
C774        C  0.84925495  0.77752880  0.88442121     0.18400
C775        C  0.80767323  0.82923358  0.84840434     0.12300
C776        C  0.84040332  0.82510598  0.76898452    -0.12000
H777        H  0.87109337  0.78627725  0.77789934     0.12600
C778        C  0.85202163  0.76213808  0.92625363    -0.22900
H779        H  0.82117307  0.79974392  0.91537735     0.08300
C780        C  0.78361802  0.82045998  0.83972020     0.04600
C781        C  0.76381783  0.83688665  0.84069001    -0.20100
C782        C  0.76728471  0.86195474  0.85072022    -0.12400
C783        C  0.79148268  0.87060728  0.86064705     0.13300
C784        C  0.81142664  0.85414086  0.85846999    -0.22800
C785        C  0.77886190  0.79375243  0.82890241    -0.05900
H786        H  0.74546022  0.83008626  0.83282158     0.14800
C787        C  0.79704365  0.89651168  0.87577683    -0.16100
H788        H  0.82996406  0.86062377  0.86583445     0.09200
H789        H  0.83441931  0.75230576  0.93323706     0.07000
H790        H  0.85643341  0.77428439  0.95522132     0.08200
H791        H  0.86711783  0.74851482  0.92386109     0.07300
H792        H  0.84419067  0.84453577  0.77823997     0.02100
H793        H  0.82119559  0.82348280  0.75615343     0.02600
H794        H  0.85320426  0.81990678  0.74143881     0.06100
H795        H  0.75900272  0.79007882  0.82214066     0.05100
H796        H  0.78454435  0.78208002  0.85765229    -0.00700
H797        H  0.78953362  0.78838426  0.79861584     0.00800
H798        H  0.80755322  0.89597119  0.90783903     0.04500
H799        H  0.78034322  0.90755887  0.88239930     0.06400
H800        H  0.80848098  0.90595162  0.85003317     0.07300
C801        C  0.83280877  0.65254976  0.01363070    -0.22300
C802        C  0.84433188  0.66006736  0.05348848     0.09600
C803        C  0.86605808  0.67442510  0.05171993     0.10000
C804        C  0.87605953  0.68069983  0.00986441    -0.17300
C805        C  0.86481101  0.67302459  0.96964972    -0.27700
C806        C  0.84273599  0.65886720  0.97155379     0.18400
C807        C  0.83387243  0.65234372  0.09710712     0.12300
C808        C  0.87882027  0.68289682  0.09408821    -0.12000
H809        H  0.89291890  0.69151091  0.00852797     0.12600
C810        C  0.83009526  0.64945623  0.92970231    -0.22900
H811        H  0.81615622  0.64145354  0.01556317     0.08300
C812        C  0.81686161  0.66721463  0.12034543     0.04600
C813        C  0.81039021  0.66113184  0.16461415    -0.20100
C814        C  0.82036527  0.64035194  0.18569411    -0.12400
C815        C  0.83658159  0.62484544  0.16157882     0.13300
C816        C  0.84306146  0.63102349  0.11736947    -0.22800
C817        C  0.80616154  0.68983216  0.09878242    -0.05900
H818        H  0.79804885  0.67298588  0.18331355     0.14800
C819        C  0.84841107  0.60276761  0.18328847    -0.16100
H820        H  0.85622633  0.61982550  0.09918079     0.09200
H821        H  0.82329326  0.66511441  0.90934831     0.07000
H822        H  0.81391401  0.63764261  0.93780915     0.08200
H823        H  0.84319543  0.63832166  0.90952887     0.07300
H824        H  0.88455134  0.66673671  0.11426546     0.02100
H825        H  0.86606832  0.69437110  0.11431984     0.02600
H826        H  0.89556929  0.69403777  0.08666870     0.06100
H827        H  0.79314924  0.69943202  0.12161337     0.05100
H828        H  0.79595233  0.68456029  0.06783040    -0.00700
H829        H  0.82119202  0.70287571  0.08982617     0.00800
H830        H  0.86142052  0.59338904  0.16013924     0.04500
H831        H  0.83400404  0.58923043  0.19311109     0.06400
H832        H  0.85894821  0.60858340  0.21357111     0.07300
C833        C  0.89765553  0.68898772  0.61238605    -0.22300
C834        C  0.87476579  0.69666977  0.59570361     0.09600
C835        C  0.85886476  0.71058276  0.62313122     0.10000
C836        C  0.86584227  0.71573025  0.66754802    -0.17300
C837        C  0.88834031  0.70722176  0.68503202    -0.27700
C838        C  0.90465891  0.69397832  0.65686448     0.18400
C839        C  0.86651029  0.68698222  0.55181371     0.12300
C840        C  0.83435357  0.71949677  0.60572977    -0.12000
H841        H  0.85338130  0.72587072  0.68914964     0.12600
C842        C  0.92866418  0.68366610  0.67416876    -0.22900
H843        H  0.90956132  0.67802687  0.59105562     0.08300
C844        C  0.87432699  0.69731786  0.51081808     0.04600
C845        C  0.86722340  0.68601001  0.47034708    -0.20100
C846        C  0.85281826  0.66440705  0.47022440    -0.12400
C847        C  0.84443111  0.65456572  0.51159242     0.13300
C848        C  0.85139973  0.66605124  0.55180036    -0.22800
C849        C  0.89024985  0.72007823  0.50995824    -0.05900
H850        H  0.87365073  0.69359681  0.43874309     0.14800
C851        C  0.82789984  0.63220135  0.51387724    -0.16100
H852        H  0.84545269  0.65838836  0.58365069     0.09200
H853        H  0.93839383  0.67273173  0.64812445     0.07000
H854        H  0.92510590  0.67145526  0.70337711     0.08200
H855        H  0.94112676  0.69889512  0.68437540     0.07300
H856        H  0.82255239  0.70360163  0.59610638     0.02100
H857        H  0.83734977  0.73134811  0.57585109     0.02600
H858        H  0.82428883  0.73037881  0.63141269     0.06100
H859        H  0.89456948  0.72588251  0.47504564     0.05100
H860        H  0.90794480  0.71652908  0.52763509    -0.00700
H861        H  0.88049494  0.73539812  0.52697293     0.00800
H862        H  0.82155363  0.62850072  0.54872159     0.04500
H863        H  0.83805316  0.61569218  0.50239380     0.06400
H864        H  0.81127931  0.63501065  0.49261380     0.07300
C865        C  0.89393842  0.57657303  0.77477131    -0.22300
C866        C  0.86905807  0.56934421  0.77594056     0.09600
C867        C  0.85103373  0.58574952  0.79207968     0.10000
C868        C  0.85831720  0.60924459  0.80637933    -0.17300
C869        C  0.88322881  0.61655064  0.80534594    -0.27700
C870        C  0.90130686  0.60003446  0.78933267     0.18400
C871        C  0.86230658  0.54467799  0.75890499     0.12300
C872        C  0.82415316  0.57853876  0.79374853    -0.12000
H873        H  0.84451511  0.62195071  0.81876364     0.12600
C874        C  0.92814257  0.60733636  0.78589820    -0.22900
H875        H  0.90758469  0.56382517  0.76198401     0.08300
C876        C  0.85992315  0.54015735  0.71245962     0.04600
C877        C  0.85442359  0.51629892  0.69762667    -0.20100
C878        C  0.85120779  0.49685147  0.72815080    -0.12400
C879        C  0.85384169  0.50139503  0.77482039     0.13300
C880        C  0.85908677  0.52539041  0.78956714    -0.22800
C881        C  0.86293900  0.56056307  0.67864278    -0.05900
H882        H  0.85231753  0.51284157  0.66192274     0.14800
C883        C  0.85245928  0.48141461  0.80985736    -0.16100
H884        H  0.86125621  0.52899620  0.82520816     0.09200
H885        H  0.93941675  0.59258434  0.77036355     0.07000
H886        H  0.93580657  0.61101833  0.81984952     0.08200
H887        H  0.93001517  0.62408200  0.76482284     0.07300
H888        H  0.82171948  0.56233928  0.81599103     0.02100
H889        H  0.81755473  0.57384935  0.75944004     0.02600
H890        H  0.81249008  0.59365786  0.80698298     0.06100
H891        H  0.86009820  0.55391455  0.64369297     0.05100
H892        H  0.88183971  0.56845907  0.68098543    -0.00700
H893        H  0.84922316  0.57522639  0.68540317     0.00800
H894        H  0.86978466  0.48141000  0.82988695     0.04500
H895        H  0.85033828  0.46275154  0.79547894     0.06400
H896        H  0.83667915  0.48497402  0.83273330     0.07300
C897        C  0.02933122  0.34800626  0.25736214    -0.22300
C898        C  0.03567058  0.37294705  0.25674814     0.09600
C899        C  0.01804369  0.39041072  0.24333657     0.10000
C900        C  0.99432757  0.38248521  0.23067016    -0.17300
C901        C  0.98771441  0.35735380  0.23047055    -0.27700
C902        C  0.00571184  0.33985477  0.24429134     0.18400
C903        C  0.06089036  0.38032888  0.27084470     0.12300
C904        C  0.02436869  0.41740529  0.24212457    -0.12000
H905        H  0.98098664  0.39614949  0.22028470     0.12600
C906        C  0.00075008  0.31254410  0.24476145    -0.22900
H907        H  0.04313090  0.33480789  0.26789183     0.08300
C908        C  0.06654190  0.38474092  0.31638504     0.04600
C909        C  0.09076287  0.39118459  0.32845400    -0.20100
C910        C  0.10955637  0.39316521  0.29608791    -0.12400
C911        C  0.10369658  0.38934484  0.25012669     0.13300
C912        C  0.07943456  0.38269648  0.23823568    -0.22800
C913        C  0.04703772  0.38241076  0.35224308    -0.05900
H914        H  0.09519578  0.39414165  0.36359418     0.14800
C915        C  0.12209745  0.39297798  0.21261175    -0.16100
H916        H  0.07486262  0.37957372  0.20319302     0.09200
H917        H  0.98542708  0.30829384  0.26831570     0.07000
H918        H  0.01711504  0.30196322  0.25610361     0.08200
H919        H  0.99606997  0.30607754  0.21036919     0.07300
H920        H  0.03992972  0.42059867  0.21852653     0.02100
H921        H  0.02983864  0.42376300  0.27618340     0.02600
H922        H  0.00846936  0.42866364  0.23080319     0.06100
H923        H  0.05456390  0.38651281  0.38618899     0.05100
H924        H  0.03953847  0.36338266  0.35254591    -0.00700
H925        H  0.03178776  0.39546513  0.34541562     0.00800
H926        H  0.12515445  0.37525507  0.19496661     0.04500
H927        H  0.14014918  0.40020051  0.22422439     0.06400
H928        H  0.11470024  0.40649303  0.18815012     0.07300
C929        C  0.85976742  0.39674435  0.90123565    -0.22300
C930        C  0.83961638  0.38706812  0.92493961     0.09600
C931        C  0.81665764  0.38382752  0.90346338     0.10000
C932        C  0.81458879  0.38953408  0.85775295    -0.17300
C933        C  0.83513156  0.39790940  0.83339539    -0.27700
C934        C  0.85787439  0.40215423  0.85548360     0.18400
C935        C  0.84395698  0.37831937  0.97093433     0.12300
C936        C  0.79474686  0.37352066  0.92836153    -0.12000
H937        H  0.79721401  0.38638985  0.84047007     0.12600
C938        C  0.88040233  0.41234883  0.83207691    -0.22900
H939        H  0.87731575  0.39930991  0.91827998     0.08300
C940        C  0.85574073  0.35561318  0.97827709     0.04600
C941        C  0.86300557  0.34939063  0.02180713    -0.20100
C942        C  0.85875395  0.36539968  0.05776509    -0.12400
C943        C  0.84561338  0.38748887  0.05094056     0.13300
C944        C  0.83831042  0.39369832  0.00724163    -0.22800
C945        C  0.86128271  0.33832895  0.93998690    -0.05900
H946        H  0.87300041  0.33244580  0.02759381     0.14800
C947        C  0.84013502  0.40539106  0.08834007    -0.16100
H948        H  0.82912931  0.41106531  0.00117385     0.09200
H949        H  0.89555781  0.39867279  0.83349600     0.07000
H950        H  0.88655953  0.42941444  0.84936435     0.08200
H951        H  0.87699110  0.41710870  0.79642047     0.07300
H952        H  0.79001465  0.38578747  0.95689792     0.02100
H953        H  0.79919963  0.35495632  0.94147693     0.02600
H954        H  0.77826532  0.37186654  0.90627875     0.06100
H955        H  0.87028915  0.32121750  0.95189164     0.05100
H956        H  0.87390237  0.34733486  0.91560528    -0.00700
H957        H  0.84383973  0.33315910  0.92266515     0.00800
H958        H  0.84911382  0.42333786  0.08101606     0.04500
H959        H  0.84676682  0.39906489  0.12159130     0.06400
H960        H  0.81986537  0.40815331  0.09072897     0.07300
C961        C  0.87369795  0.33371866  0.50582428    -0.22300
C962        C  0.87021700  0.34686247  0.46597400     0.09600
C963        C  0.86019259  0.37071543  0.46720216     0.10000
C964        C  0.85470213  0.38134737  0.50875905    -0.17300
C965        C  0.85867104  0.36856141  0.54906570    -0.27700
C966        C  0.86803260  0.34426518  0.54759466     0.18400
C967        C  0.87787919  0.33584498  0.42303948     0.12300
C968        C  0.85563292  0.38505352  0.42467093    -0.12000
H969        H  0.84761110  0.39992467  0.50980099     0.12600
C970        C  0.87326100  0.32979076  0.58969713    -0.22900
H971        H  0.88138795  0.31536951  0.50418604     0.08300
C972        C  0.90132654  0.34092787  0.40457136     0.04600
C973        C  0.90633506  0.33363995  0.36036086    -0.20100
C974        C  0.88827178  0.32165803  0.33443227    -0.12400
C975        C  0.86559239  0.31465294  0.35453477     0.13300
C976        C  0.86060758  0.32206775  0.39863486    -0.22800
C977        C  0.92057066  0.35498142  0.43085207    -0.05900
H978        H  0.92370775  0.33893684  0.34496515     0.14800
C979        C  0.84620296  0.29963838  0.33037645    -0.16100
H980        H  0.84280817  0.31783944  0.41352828     0.09200
H981        H  0.88628981  0.34017753  0.61153850     0.07000
H982        H  0.88173166  0.31170490  0.58202512     0.08200
H983        H  0.85579653  0.32620031  0.60810967     0.07300
H984        H  0.84254505  0.37480440  0.40276043     0.02100
H985        H  0.87327426  0.38785460  0.40639206     0.02600
H986        H  0.84759963  0.40341448  0.43173514     0.06100
H987        H  0.93787602  0.35744522  0.41130432     0.05100
H988        H  0.92508996  0.34483845  0.46213522    -0.00700
H989        H  0.91351278  0.37347441  0.43980723     0.00800
H990        H  0.84158091  0.28314234  0.35071317     0.04500
H991        H  0.85243663  0.29296048  0.29706872     0.06400
H992        H  0.82924243  0.31078553  0.32589586     0.07300
C993        C  0.87684663  0.51084551  0.26051193    -0.22300
C994        C  0.85892980  0.49226181  0.26368770     0.09600
C995        C  0.83493186  0.49808305  0.27849481     0.10000
C996        C  0.82948364  0.52242700  0.29033459    -0.17300
C997        C  0.84748028  0.54114506  0.28781203    -0.27700
C998        C  0.87144947  0.53526301  0.27203171     0.18400
C999        C  0.86560036  0.46701955  0.24967350     0.12300
C1000       C  0.81501580  0.47869942  0.28131338    -0.12000
H1001       H  0.81114305  0.52673269  0.30257291     0.12600
C1002       C  0.89125619  0.55455331  0.26588808    -0.22900
H1003       H  0.89517767  0.50615700  0.24870169     0.08300
C1004       C  0.86917826  0.46118779  0.20395998     0.04600
C1005       C  0.87641920  0.43736957  0.19214282    -0.20100
C1006       C  0.87962881  0.41905664  0.22479620    -0.12400
C1007       C  0.87572077  0.42478038  0.27067680     0.13300
C1008       C  0.86882871  0.44879903  0.28249809    -0.22800
C1009       C  0.86468494  0.47988084  0.16751808    -0.05900
H1010       H  0.87903531  0.43282388  0.15697912     0.14800
C1011       C  0.87930018  0.40642631  0.30806504    -0.16100
H1012       H  0.86618529  0.45343079  0.31762090     0.09200
H1013       H  0.88425736  0.56955124  0.24409637     0.07000
H1014       H  0.90801728  0.54686102  0.24969801     0.08200
H1015       H  0.89700902  0.56213010  0.29891641     0.07300
H1016       H  0.82041443  0.46429068  0.30574881     0.02100
H1017       H  0.81220090  0.47017370  0.24775997     0.02600
H1018       H  0.79712428  0.48653300  0.29249232     0.06100
H1019       H  0.86739758  0.47191949  0.13349337     0.05100
H1020       H  0.87766198  0.49558869  0.17125497    -0.00700
H1021       H  0.84540537  0.48667291  0.16971600     0.00800
H1022       H  0.89288540  0.41379841  0.33266706     0.04500
H1023       H  0.88638094  0.38846322  0.29636385     0.06400
H1024       H  0.86142981  0.40331352  0.32548473     0.07300
C1025       C  0.72928677  0.04707509  0.02663187    -0.22300
C1026       C  0.74500115  0.02857833  0.04225988     0.09600
C1027       C  0.75632623  0.03095795  0.08469403     0.10000
C1028       C  0.74922515  0.05036803  0.11299128    -0.17300
C1029       C  0.73098331  0.06713709  0.09946950    -0.27700
C1030       C  0.72206007  0.06638579  0.05473223     0.18400
C1031       C  0.74498532  0.00517749  0.01709674     0.12300
C1032       C  0.77521288  0.01262040  0.10039287    -0.12000
H1033       H  0.75653787  0.05131342  0.14687949     0.12600
C1034       C  0.70450342  0.08547122  0.03664258    -0.22900
H1035       H  0.72110589  0.04530406  0.99348693     0.08300
C1036       C  0.72755501  0.98675622  0.02804402     0.04600
C1037       C  0.72307359  0.96775469  0.99745503    -0.20100
C1038       C  0.73477917  0.96722165  0.95539042    -0.12400
C1039       C  0.75371402  0.98450961  0.94597659     0.13300
C1040       C  0.75859369  0.00337393  0.97717670    -0.22800
C1041       C  0.71201298  0.98826827  0.07008663    -0.05900
H1042       H  0.70877115  0.95433722  0.00485522     0.14800
C1043       C  0.76754019  0.98428166  0.90206403    -0.16100
H1044       H  0.77180862  0.01772349  0.96906642     0.09200
H1045       H  0.70136335  0.08313990  0.99998007     0.07000
H1046       H  0.71230381  0.10414483  0.04219681     0.08200
H1047       H  0.68623882  0.08397048  0.05323648     0.07300
H1048       H  0.79107155  0.01258431  0.07675610     0.02100
H1049       H  0.76709489  0.99388333  0.10156761     0.02600
H1050       H  0.78228293  0.01720781  0.13445276     0.06100
H1051       H  0.69882769  0.97262428  0.07264470     0.05100
H1052       H  0.70112556  0.00552013  0.07000345    -0.00700
H1053       H  0.72396106  0.98793594  0.10034007     0.00800
H1054       H  0.77758070  0.96663833  0.89843286     0.04500
H1055       H  0.75448930  0.98648956  0.87358604     0.16000
H1056       H  0.78132539  0.99943354  0.90021267     0.07300
C1057       C  0.67004660  0.01283173  0.31877607    -0.22300
C1058       C  0.66276653  0.99412936  0.28902852     0.09600
C1059       C  0.66191444  0.99882352  0.24244279     0.10000
C1060       C  0.66769905  0.02239440  0.22670555    -0.17300
C1061       C  0.67482112  0.04120774  0.25634548    -0.27700
C1062       C  0.67616551  0.03640084  0.30298852     0.18400
C1063       C  0.65557545  0.96980800  0.30703075     0.12300
C1064       C  0.65539482  0.97884189  0.20926822    -0.12000
H1065       H  0.66704822  0.02609714  0.19092237     0.12600
C1066       C  0.68312504  0.05576703  0.33703148    -0.22900
H1067       H  0.67063321  0.00909461  0.35453869     0.08300
C1068       C  0.67339594  0.95251265  0.32047920     0.04600
C1069       C  0.66569554  0.92884107  0.33284726    -0.20100
C1070       C  0.64055139  0.92215219  0.33269221    -0.12400
C1071       C  0.62262700  0.93991624  0.32090875     0.13300
C1072       C  0.63044770  0.96351247  0.30803893    -0.22800
C1073       C  0.70051544  0.95887577  0.32091802    -0.05900
H1074       H  0.67943961  0.91543859  0.34268782     0.14800
C1075       C  0.59538846  0.93399841  0.32011498    -0.16100
H1076       H  0.61693750  0.97706368  0.29780905     0.09200
H1077       H  0.70022096  0.05016748  0.35487096     0.07000
H1078       H  0.66800444  0.05774695  0.36195343     0.08200
H1079       H  0.68630203  0.07406296  0.32179323     0.07300
H1080       H  0.63633906  0.97207524  0.21549350     0.02100
H1081       H  0.66854049  0.96334380  0.21280715     0.02600
H1082       H  0.65631773  0.98552012  0.17403932     0.06100
H1083       H  0.71197348  0.94305818  0.33176581     0.05100
H1084       H  0.70396198  0.97428768  0.34462101    -0.00700
H1085       H  0.70652173  0.96438978  0.28669984     0.00800
H1086       H  0.58883778  0.92973547  0.35457582     0.04500
H1087       H  0.59184389  0.91804256  0.29766217     0.06400
H1088       H  0.58431204  0.94970875  0.30756864     0.07300
C1089       C  0.80312591  0.18335104  0.16428773    -0.22300
C1090       C  0.80109764  0.20757731  0.17983633     0.09600
C1091       C  0.77900958  0.21548197  0.20014158     0.10000
C1092       C  0.75937474  0.19889442  0.20466583    -0.17300
C1093       C  0.76125204  0.17450281  0.18955007    -0.27700
C1094       C  0.78337587  0.16665405  0.16853233     0.18400
C1095       C  0.82233806  0.22454998  0.17576565     0.12300
C1096       C  0.77629377  0.24135644  0.21765104    -0.12000
H1097       H  0.74255165  0.20490254  0.22102649     0.12600
C1098       C  0.78666789  0.14134203  0.14878761    -0.22900
H1099       H  0.82016708  0.17750440  0.14849210     0.08300
C1100       C  0.83993351  0.22662275  0.21051071     0.04600
C1101       C  0.85730343  0.24579151  0.20915063    -0.20100
C1102       C  0.85719012  0.26304536  0.17407749    -0.12400
C1103       C  0.84073926  0.25976797  0.13750362     0.13300
C1104       C  0.82332802  0.24062199  0.13904949    -0.22800
C1105       C  0.83957424  0.20930339  0.24999006    -0.05900
H1106       H  0.86994406  0.24826193  0.23709697     0.14800
C1107       C  0.84106051  0.27601023  0.09646009    -0.16100
H1108       H  0.80993129  0.23868137  0.11214428     0.09200
H1109       H  0.80160037  0.13160770  0.16706304     0.07000
H1110       H  0.79198141  0.14300657  0.11287181     0.08200
H1111       H  0.76971449  0.12994406  0.14987684     0.07300
H1112       H  0.77863622  0.25465964  0.18969864     0.02100
H1113       H  0.79049551  0.24506492  0.24376112     0.02600
H1114       H  0.75783914  0.24440869  0.23291674     0.06100
H1115       H  0.85453423  0.21358307  0.27438174     0.05100
H1116       H  0.84211795  0.19014399  0.23801468    -0.00700
H1117       H  0.82163152  0.21066254  0.26784850     0.00800
H1118       H  0.84321767  0.26444481  0.06594245     0.04500
H1119       H  0.85654355  0.28940875  0.09652858     0.06400
H1120       H  0.82337726  0.28619110  0.09405054     0.07300
C1121       C  0.62628085  0.20672782  0.93002360    -0.22300
C1122       C  0.64906713  0.19747438  0.94429128     0.09600
C1123       C  0.66808936  0.19347970  0.91286313     0.10000
C1124       C  0.66386872  0.19888786  0.86762591    -0.17300
C1125       C  0.64067595  0.20698425  0.85251222    -0.27700
C1126       C  0.62165075  0.21129821  0.88435847     0.18400
C1127       C  0.65121399  0.18770869  0.99024163     0.12300
C1128       C  0.69221566  0.18177346  0.92636471    -0.12000
H1129       H  0.67849289  0.19556763  0.84353717     0.12600
C1130       C  0.59601936  0.21907980  0.87063215    -0.22900
H1131       H  0.61164634  0.20905190  0.95450046     0.08300
C1132       C  0.66487237  0.19979574  0.02402441     0.04600
C1133       C  0.66974390  0.18735545  0.06433604    -0.20100
C1134       C  0.66080917  0.16334397  0.07163973    -0.12400
C1135       C  0.64532269  0.15221600  0.03886903     0.13300
C1136       C  0.64095482  0.16452740  0.99845387    -0.22800
C1137       C  0.67387875  0.22582135  0.01776510    -0.05900
H1138       H  0.68088698  0.19628174  0.08992305     0.14800
C1139       C  0.63283260  0.12768460  0.04621950    -0.16100
H1140       H  0.63002437  0.15572771  0.97239651     0.09200
H1141       H  0.59670261  0.23749451  0.85465925     0.07000
H1142       H  0.58338214  0.22034177  0.89993367     0.08200
H1143       H  0.58802875  0.20544253  0.84684748     0.07300
H1144       H  0.68863785  0.16338031  0.94120832     0.02100
H1145       H  0.70200023  0.19336319  0.95136698     0.02600
H1146       H  0.70471754  0.17928721  0.89714653     0.06100
H1147       H  0.68408182  0.23258026  0.04776901     0.05100
H1148       H  0.65782548  0.23807659  0.01212552    -0.00700
H1149       H  0.68638330  0.22713880  0.98839867     0.00800
H1150       H  0.61976597  0.12312547  0.01859967     0.04500
H1151       H  0.62212649  0.12807976  0.07804378     0.06400
H1152       H  0.64674466  0.11279333  0.04739121     0.07300
C1153       C  0.66026432  0.14750456  0.49661234    -0.22300
C1154       C  0.68492438  0.15437939  0.49051986     0.09600
C1155       C  0.69775239  0.16650787  0.52523015     0.10000
C1156       C  0.68522544  0.17226163  0.56506828    -0.17300
C1157       C  0.66016935  0.16590067  0.57130234    -0.27700
C1158       C  0.64775083  0.15259469  0.53663828     0.18400
C1159       C  0.69583654  0.15037674  0.44574244     0.12300
C1160       C  0.72468298  0.17307349  0.52041116    -0.12000
H1161       H  0.69519596  0.18184589  0.59142191     0.12600
C1162       C  0.62147213  0.14344311  0.54062798    -0.22900
H1163       H  0.65065290  0.13826348  0.46935456     0.08300
C1164       C  0.70011098  0.12654834  0.42894442     0.04600
C1165       C  0.70488387  0.12346701  0.38303353    -0.20100
C1166       C  0.70525234  0.14367676  0.35356898    -0.12400
C1167       C  0.70350640  0.16779823  0.37164861     0.13300
C1168       C  0.69854425  0.17072916  0.41749263    -0.22800
C1169       C  0.69919732  0.10439677  0.45928853    -0.05900
H1170       H  0.70707604  0.10503578  0.36988350     0.14800
C1171       C  0.70671777  0.19062297  0.34339053    -0.16100
H1172       H  0.69546406  0.18898757  0.43099549     0.09200
H1173       H  0.61534714  0.13330012  0.51013138     0.07000
H1174       H  0.60874341  0.15914628  0.54501459     0.08200
H1175       H  0.61986237  0.13056215  0.56941250     0.07300
H1176       H  0.72729078  0.18614473  0.49220997     0.02100
H1177       H  0.73551211  0.15616870  0.51372572     0.02600
H1178       H  0.73211952  0.18182993  0.55136223     0.06100
H1179       H  0.70370114  0.08722297  0.44084942     0.05100
H1180       H  0.68046287  0.10219177  0.47383631    -0.00700
H1181       H  0.71281565  0.10670293  0.48692194     0.00800
H1182       H  0.70743623  0.20750442  0.36441533     0.04500
H1183       H  0.69094203  0.19275746  0.31993692     0.06400
H1184       H  0.72431639  0.18959448  0.32432737     0.07300
C1185       C  0.57371247  0.14797757  0.28621117    -0.22300
C1186       C  0.55742469  0.15408389  0.25130938     0.09600
C1187       C  0.56542374  0.15277297  0.20633990     0.10000
C1188       C  0.58979507  0.14573004  0.19723096    -0.17300
C1189       C  0.60640527  0.14039562  0.23214514    -0.27700
C1190       C  0.59816377  0.14104998  0.27722007     0.18400
C1191       C  0.53261092  0.16336450  0.26294271     0.12300
C1192       C  0.54841090  0.15933165  0.16813283    -0.12000
H1193       H  0.59619941  0.14523465  0.16272670     0.12600
C1194       C  0.61437918  0.13413239  0.31641410    -0.22900
H1195       H  0.56736337  0.14890202  0.32071853     0.08300
C1196       C  0.51239288  0.14740270  0.26970658     0.04600
C1197       C  0.48975088  0.15716169  0.28398239    -0.20100
C1198       C  0.48690213  0.18253147  0.29160602    -0.12400
C1199       C  0.50712081  0.19855828  0.28334184     0.13300
C1200       C  0.52969502  0.18869814  0.26904860    -0.22800
C1201       C  0.51489504  0.12009862  0.26269509    -0.05900
H1202       H  0.47432860  0.14484862  0.29021700     0.14800
C1203       C  0.50558797  0.22585378  0.29176766    -0.16100
H1204       H  0.54543139  0.20074118  0.26364626     0.09200
H1205       H  0.60553725  0.11890354  0.33543001     0.07000
H1206       H  0.61663960  0.15020076  0.33911630     0.08200
H1207       H  0.63295343  0.12778151  0.30611444     0.07300
H1208       H  0.54226554  0.17868047  0.17171266     0.02100
H1209       H  0.53199453  0.14704057  0.16840513     0.02600
H1210       H  0.55766689  0.15740667  0.13502022     0.06100
H1211       H  0.49727812  0.11023613  0.26947160     0.05100
H1212       H  0.52922219  0.11270674  0.28566009    -0.00700
H1213       H  0.52034055  0.11628616  0.22742596     0.00800
H1214       H  0.52353136  0.23522723  0.28552897     0.04500
H1215       H  0.50034497  0.22935734  0.32728005     0.06400
H1216       H  0.49174566  0.23417601  0.26891437     0.07300
C1217       C  0.33686673  0.03891773  0.30124820    -0.22300
C1218       C  0.36039019  0.04818497  0.29125241     0.09600
C1219       C  0.37733190  0.03342748  0.26783294     0.10000
C1220       C  0.37028951  0.00971171  0.25439975    -0.17300
C1221       C  0.34648255  0.00022597  0.26330260    -0.27700
C1222       C  0.32954879  0.01520848  0.28750754     0.18400
C1223       C  0.36689486  0.07359246  0.30497927     0.12300
C1224       C  0.40274336  0.04292803  0.25630926    -0.12000
H1225       H  0.38348498  0.99876925  0.23582890     0.12600
C1226       C  0.30377879  0.00674143  0.29920309    -0.22900
H1227       H  0.32405122  0.05051931  0.31942306     0.08300
C1228       C  0.36074173  0.09395617  0.27800717     0.04600
C1229       C  0.36793493  0.11762779  0.29173017    -0.20100
C1230       C  0.38104626  0.12147252  0.33198135    -0.12400
C1231       C  0.38646135  0.10094987  0.35976066     0.13300
C1232       C  0.37970937  0.07726733  0.34532686    -0.22800
C1233       C  0.34682541  0.09062351  0.23453361    -0.05900
H1234       H  0.36353411  0.13323418  0.27058481     0.14800
C1235       C  0.39813892  0.10309703  0.40567918    -0.16100
H1236       H  0.38407023  0.06151509  0.36615859     0.09200
H1237       H  0.29282249  0.00372835  0.26813698     0.07000
H1238       H  0.29377410  0.02059108  0.31964868     0.08200
H1239       H  0.30462198  0.98952072  0.31912133     0.07300
H1240       H  0.41294585  0.04755141  0.28759732     0.02100
H1241       H  0.40118669  0.05966631  0.23518852     0.02600
H1242       H  0.41368579  0.02912548  0.23742927     0.06100
H1243       H  0.34363571  0.10844101  0.21731768     0.05100
H1244       H  0.32857289  0.08200836  0.24127911    -0.00700
H1245       H  0.35749209  0.07861218  0.21150876     0.00800
H1246       H  0.38630235  0.09354091  0.43070690     0.04500
H1247       H  0.40019809  0.12223736  0.41766158     0.06400
H1248       H  0.41656609  0.09421189  0.40534406     0.07300
C1249       C  0.39758681  0.85449484  0.92897069    -0.22300
C1250       C  0.37418454  0.84818973  0.94541952     0.09600
C1251       C  0.35731224  0.83541200  0.91785381     0.10000
C1252       C  0.36400440  0.82987691  0.87354744    -0.17300
C1253       C  0.38706361  0.83708106  0.85629898    -0.27700
C1254       C  0.40419114  0.84947825  0.88442710     0.18400
C1255       C  0.36680876  0.85799933  0.98952288     0.12300
C1256       C  0.33216294  0.82808118  0.93499357    -0.12000
H1257       H  0.35093514  0.82045809  0.85182234     0.12600
C1258       C  0.42875076  0.85931211  0.86827348    -0.22900
H1259       H  0.41026780  0.86465666  0.95035563     0.08300
C1260       C  0.37388028  0.84664156  0.02995298     0.04600
C1261       C  0.36827657  0.85816979  0.07081479    -0.20100
C1262       C  0.35583572  0.88083578  0.07195236    -0.12400
C1263       C  0.34785615  0.89162179  0.03109324     0.13300
C1264       C  0.35360616  0.88004455  0.99041020    -0.22800
C1265       C  0.38733228  0.82246528  0.02980538    -0.05900
H1266       H  0.37413590  0.84968229  0.10197893     0.14800
C1267       C  0.33282917  0.91492476  0.02978527    -0.16100
H1268       H  0.34811359  0.88840458  0.95888665     0.09200
H1269       H  0.44390965  0.85032345  0.88719913     0.07000
H1270       H  0.42965792  0.87943937  0.87445232     0.08200
H1271       H  0.43204229  0.85652552  0.83196824     0.07300
H1272       H  0.32158515  0.84469497  0.94469275     0.02100
H1273       H  0.33420361  0.81597556  0.96477334     0.02600
H1274       H  0.32133888  0.81796714  0.90912449     0.06100
H1275       H  0.39128182  0.81596063  0.06443827     0.05100
H1276       H  0.40516873  0.82444608  0.01176424    -0.00700
H1277       H  0.37587078  0.80830456  0.01265315     0.00800
H1278       H  0.32663762  0.91936739  0.99513701     0.04500
H1279       H  0.34404420  0.93072566  0.04184708     0.06400
H1280       H  0.31608535  0.91280805  0.05100659     0.07300
C1281       C  0.33590136  0.90496368  0.42847040    -0.22300
C1282       C  0.33181055  0.88056442  0.44150090     0.09600
C1283       C  0.31939415  0.86419175  0.41256584     0.10000
C1284       C  0.31263760  0.87223903  0.36967168    -0.17300
C1285       C  0.31817108  0.89622707  0.35522465    -0.27700
C1286       C  0.32931276  0.91307255  0.38545678     0.18400
C1287       C  0.34262813  0.87214446  0.48410567     0.12300
C1288       C  0.31418907  0.83804503  0.42636667    -0.12000
H1289       H  0.30396598  0.85941681  0.34654293     0.12600
C1290       C  0.33580118  0.93901612  0.37185963    -0.22900
H1291       H  0.34537880  0.91733676  0.45137500     0.08300
C1292       C  0.36754385  0.86493595  0.48637752     0.04600
C1293       C  0.37773276  0.85886510  0.52808697    -0.20100
C1294       C  0.36369644  0.86020740  0.56779010    -0.12400
C1295       C  0.33831616  0.86676850  0.56494273     0.13300
C1296       C  0.32816102  0.87254372  0.52290979    -0.22800
C1297       C  0.38349808  0.86417394  0.44487838    -0.05900
H1298       H  0.39701717  0.85368428  0.52973497     0.14800
C1299       C  0.32192069  0.86889631  0.60572244    -0.16100
H1300       H  0.30900074  0.87810395  0.52033219     0.09200
H1301       H  0.34838396  0.93878686  0.34240276     0.07000
H1302       H  0.34526167  0.94917589  0.39938190     0.08200
H1303       H  0.31873441  0.94923390  0.36330540     0.07300
H1304       H  0.30237687  0.83789267  0.45684960     0.02100
H1305       H  0.33179652  0.82848189  0.43383474     0.02600
H1306       H  0.30444298  0.82763905  0.39948730     0.06100
H1307       H  0.40255571  0.85795928  0.45259406     0.05100
H1308       H  0.38473719  0.88279815  0.42980898    -0.00700
H1309       H  0.37537499  0.85127154  0.41993085     0.00800
H1310       H  0.32976208  0.88258762  0.62955691     0.04500
H1311       H  0.32009296  0.85072331  0.62234839     0.06400
H1312       H  0.30300605  0.87505473  0.59676693     0.07300
C1313       C  0.44269620  0.88789340  0.30055968    -0.22300
C1314       C  0.46115043  0.88501140  0.26796864     0.09600
C1315       C  0.45556601  0.88929151  0.22236390     0.10000
C1316       C  0.43149784  0.89613367  0.21024563    -0.17300
C1317       C  0.41275255  0.89840305  0.24259481    -0.27700
C1318       C  0.41856485  0.89472213  0.28858321     0.18400
C1319       C  0.48604054  0.87676397  0.28210088     0.12300
C1320       C  0.47491950  0.88618281  0.18647518    -0.12000
H1321       H  0.42707076  0.89892940  0.17507280     0.12600
C1322       C  0.40014029  0.89842811  0.32598637    -0.22900
H1323       H  0.44717854  0.88479515  0.33563529     0.08300
C1324       C  0.50450282  0.89357931  0.29543082     0.04600
C1325       C  0.52781222  0.88477319  0.30828036    -0.20100
C1326       C  0.53311441  0.85941606  0.30874419    -0.12400
C1327       C  0.51427707  0.84257281  0.29549746     0.13300
C1328       C  0.49110693  0.85156443  0.28211685    -0.22800
C1329       C  0.49949118  0.92079168  0.29647075    -0.05900
H1330       H  0.54190666  0.89785614  0.31846068     0.14800
C1331       C  0.51784056  0.81509341  0.29675424    -0.16100
H1332       H  0.47666305  0.83884431  0.27197877     0.09200
H1333       H  0.40763480  0.91195382  0.35050422     0.07000
H1334       H  0.39688903  0.88071037  0.34354557     0.08200
H1335       H  0.38216148  0.90562288  0.31424426     0.07300
H1336       H  0.48173080  0.86695965  0.18653018     0.02100
H1337       H  0.49064134  0.89886776  0.19297480     0.02600
H1338       H  0.46748590  0.89022990  0.15248416     0.06100
H1339       H  0.51591411  0.93143966  0.30780345     0.05100
H1340       H  0.48407279  0.92465424  0.31999475    -0.00700
H1341       H  0.49436831  0.92725404  0.26235628     0.00800
H1342       H  0.50072590  0.80499824  0.28727508     0.04500
H1343       H  0.52297379  0.80924915  0.33126818     0.06400
H1344       H  0.53242740  0.80964088  0.27257655     0.07300
C1345       C  0.02152545  0.76323885  0.07201006    -0.22300
C1346       C  0.02339602  0.75350033  0.02855294     0.09600
C1347       C  0.04482083  0.74052605  0.01591512     0.10000
C1348       C  0.06253540  0.73508248  0.04857909    -0.17300
C1349       C  0.05901924  0.74180945  0.09365341    -0.27700
C1350       C  0.03894545  0.75724735  0.10516082     0.18400
C1351       C  0.00078535  0.75118064  0.00104375     0.12300
C1352       C  0.04802675  0.73056993  0.96895508    -0.12000
H1353       H  0.07826020  0.72382222  0.03957288     0.12600
C1354       C  0.03439851  0.76555397  0.15279226    -0.22900
H1355       H  0.00505452  0.77335245  0.08112068     0.08300
C1356       C  0.98313296  0.73293828  0.01188005     0.04600
C1357       C  0.96516421  0.72654844  0.98022344    -0.20100
C1358       C  0.96479628  0.73732907  0.93741848    -0.12400
C1359       C  0.98140701  0.75687713  0.92773335     0.13300
C1360       C  0.99909262  0.76373089  0.96008352    -0.22800
C1361       C  0.98428266  0.71884496  0.05552288    -0.05900
H1362       H  0.95220223  0.71190304  0.98800294     0.14800
C1363       C  0.98191838  0.76934156  0.88253134    -0.16100
H1364       H  0.01278681  0.77767478  0.95220685     0.09200
H1365       H  0.03213745  0.74933607  0.17508624     0.07000
H1366       H  0.01739190  0.77680740  0.15557494     0.08200
H1367       H  0.05013528  0.77701092  0.16461128     0.07300
H1368       H  0.04825801  0.74597197  0.94452732     0.02100
H1369       H  0.03261610  0.71781527  0.96060370     0.02600
H1370       H  0.06561730  0.72032328  0.96525561     0.06100
H1371       H  0.96957709  0.70458777  0.05763590     0.05100
H1372       H  0.98181139  0.73158719  0.08429428    -0.00700
H1373       H  0.00239021  0.70946873  0.05858718     0.00800
H1374       H  0.99667247  0.78356324  0.88063307     0.04500
H1375       H  0.96400477  0.77858061  0.87625790     0.06400
H1376       H  0.98547284  0.75558893  0.85571449     0.07300
C1377       C  0.00356642  0.65092685  0.27017013    -0.22300
C1378       C  0.98545111  0.66902670  0.27491557     0.09600
C1379       C  0.99189758  0.69401485  0.26983235     0.10000
C1380       C  0.01623485  0.70030581  0.25822160    -0.17300
C1381       C  0.03426801  0.68215840  0.25155616    -0.27700
C1382       C  0.02801293  0.65714934  0.25923028     0.18400
C1383       C  0.95991677  0.66144871  0.28620608     0.12300
C1384       C  0.97291611  0.71395134  0.27545657    -0.12000
H1385       H  0.02090639  0.71943366  0.25231858     0.12600
C1386       C  0.04662149  0.63661053  0.25740858    -0.22900
H1387       H  0.99860354  0.63179665  0.27532855     0.08300
C1388       C  0.94286349  0.65423430  0.25272172     0.04600
C1389       C  0.91864155  0.64786829  0.26520706    -0.20100
C1390       C  0.91133010  0.64827654  0.31044170    -0.12400
C1391       C  0.92850464  0.65556368  0.34393713     0.13300
C1392       C  0.95262797  0.66189664  0.33129729    -0.22800
C1393       C  0.95024745  0.65336644  0.20395843    -0.05900
H1394       H  0.90541168  0.64235455  0.23968352     0.14800
C1395       C  0.92194668  0.65782049  0.39306876    -0.16100
H1396       H  0.96579565  0.66762710  0.35677531     0.09200
H1397       H  0.04205455  0.62401273  0.22918323     0.07000
H1398       H  0.04596996  0.62607087  0.28934273     0.08200
H1399       H  0.06587498  0.64321900  0.25351693     0.07300
H1400       H  0.96530628  0.71342577  0.31007682     0.02100
H1401       H  0.95766350  0.71115945  0.25097760     0.02600
H1402       H  0.98096667  0.73250617  0.26976185     0.06100
H1403       H  0.93465961  0.64743791  0.18212304     0.05100
H1404       H  0.96562054  0.64015262  0.19940578    -0.00700
H1405       H  0.95638701  0.67188504  0.19283563     0.00800
H1406       H  0.93344829  0.64496103  0.41300398     0.04500
H1407       H  0.90229030  0.65388153  0.40035753     0.06400
H1408       H  0.92573059  0.67688976  0.40463531     0.07300
C1409       C  0.19382207  0.80107718  0.14790682    -0.22300
C1410       C  0.19572924  0.81722137  0.18452536     0.09600
C1411       C  0.17916308  0.81477982  0.22087061     0.10000
C1412       C  0.16216190  0.79516643  0.22116300    -0.17300
C1413       C  0.16165116  0.77778318  0.18622144    -0.27700
C1414       C  0.17694340  0.78141487  0.14818314     0.18400
C1415       C  0.21718143  0.83430080  0.18676139     0.12300
C1416       C  0.18032968  0.83208599  0.26036869    -0.12000
H1417       H  0.15033775  0.79249077  0.25014653     0.12600
C1418       C  0.17600549  0.76494163  0.10741921    -0.22900
H1419       H  0.20630679  0.80324804  0.11969625     0.08300
C1420       C  0.24081636  0.82545175  0.19818624     0.04600
C1421       C  0.26070218  0.84193477  0.20113956    -0.20100
C1422       C  0.25771126  0.86722085  0.19313444    -0.12400
C1423       C  0.23405305  0.87601865  0.18043889     0.13300
C1424       C  0.21402654  0.85943382  0.17805159    -0.22800
C1425       C  0.24495729  0.79864351  0.20853181    -0.05900
H1426       H  0.27866717  0.83504689  0.21102624     0.14800
C1427       C  0.22927720  0.90235381  0.16742878    -0.16100
H1428       H  0.19587867  0.86609144  0.16874837     0.09200
H1429       H  0.19401154  0.75550536  0.10331382     0.07000
H1430       H  0.17238942  0.77622715  0.07705267     0.08200
H1431       H  0.16117588  0.75087113  0.10927126     0.07300
H1432       H  0.17678882  0.85116180  0.24890111     0.02100
H1433       H  0.19889011  0.83123117  0.27619994     0.02600
H1434       H  0.16634509  0.82735879  0.28628855     0.06100
H1435       H  0.26442521  0.79495336  0.21811653     0.05100
H1436       H  0.24057449  0.78727230  0.17855997    -0.00700
H1437       H  0.23292959  0.79290983  0.23689625     0.00800
H1438       H  0.22041232  0.90285082  0.13376552     0.04500
H1439       H  0.24627076  0.91362924  0.16496985     0.06400
H1440       H  0.21662230  0.91089737  0.19222896     0.07300
C1441       C  0.18993475  0.66409286  0.00931695    -0.22300
C1442       C  0.17500096  0.66556918  0.97116891     0.09600
C1443       C  0.15034667  0.67345170  0.97487771     0.10000
C1444       C  0.14100810  0.67946884  0.01731874    -0.17300
C1445       C  0.15571926  0.67751963  0.05611267    -0.27700
C1446       C  0.18060348  0.66952347  0.05201173     0.18400
C1447       C  0.18533063  0.65793566  0.92769016     0.12300
C1448       C  0.13393139  0.67534342  0.93408344    -0.12000
H1449       H  0.12202772  0.68555680  0.02027430     0.12600
C1450       C  0.19775391  0.66502433  0.09116388    -0.22900
H1451       H  0.20883583  0.65781783  0.00585433     0.08300
C1452       C  0.19827794  0.67466019  0.90034704     0.04600
C1453       C  0.20606630  0.66708118  0.85777293    -0.20100
C1454       C  0.20100479  0.64322858  0.84194664    -0.12400
C1455       C  0.18875149  0.62618965  0.87018553     0.13300
C1456       C  0.18121338  0.63378441  0.91304534    -0.22800
C1457       C  0.20314900  0.70066077  0.91557981    -0.05900
H1458       H  0.21537754  0.68013327  0.83600075     0.14800
C1459       C  0.18220381  0.60060576  0.85449622    -0.16100
H1460       H  0.17125531  0.62114942  0.93468440     0.09200
H1461       H  0.21365218  0.67794734  0.08928869     0.07000
H1462       H  0.20487201  0.64592574  0.08932586     0.08200
H1463       H  0.18907870  0.66689442  0.12445400     0.07300
H1464       H  0.13198502  0.65701581  0.91797969     0.02100
H1465       H  0.14212621  0.68840793  0.90957383     0.02600
H1466       H  0.11517141  0.68197504  0.94291991     0.06100
H1467       H  0.21332098  0.71141049  0.88976475     0.05100
H1468       H  0.21440955  0.70051145  0.94677815    -0.00700
H1469       H  0.18538129  0.71008387  0.92234252     0.00800
H1470       H  0.17179722  0.59021331  0.88049188     0.04500
H1471       H  0.19929067  0.59019503  0.84692086     0.06400
H1472       H  0.17047957  0.60157147  0.82389849     0.07300
C1473       C  0.17059511  0.70185061  0.40062124    -0.22300
C1474       C  0.15186626  0.69297729  0.42862592     0.09600
C1475       C  0.12699016  0.69389596  0.41462747     0.10000
C1476       C  0.12159400  0.70193995  0.37104822    -0.17300
C1477       C  0.14056127  0.70920004  0.34174386    -0.27700
C1478       C  0.16521267  0.71045582  0.35753226     0.18400
C1479       C  0.15886116  0.68226698  0.47209989     0.12300
C1480       C  0.10632957  0.68550071  0.44494608    -0.12000
H1481       H  0.10268391  0.70127348  0.35903765     0.12600
C1482       C  0.18618846  0.72103169  0.33026037    -0.22900
H1483       H  0.18956534  0.70187616  0.41240278     0.08300
C1484       C  0.16910779  0.65855037  0.47483521     0.04600
C1485       C  0.17493628  0.64891968  0.51706752    -0.20100
C1486       C  0.17056043  0.66239184  0.55661495    -0.12400
C1487       C  0.16043219  0.68639934  0.55346504     0.13300
C1488       C  0.15491224  0.69601516  0.51105320    -0.22800
C1489       C  0.17334810  0.64320331  0.43333795    -0.05900
H1490       H  0.18273173  0.63063101  0.51916302     0.14800
C1491       C  0.15442884  0.70180813  0.59419265    -0.16100
H1492       H  0.14710333  0.71426911  0.50813432     0.09200
H1493       H  0.19961911  0.70631674  0.32212855     0.07000
H1494       H  0.19574481  0.73551301  0.35016420     0.08200
H1495       H  0.17996915  0.72983864  0.29867656     0.07300
H1496       H  0.10587351  0.69709675  0.47564792     0.02100
H1497       H  0.10920383  0.66602461  0.45469442     0.02600
H1498       H  0.08804464  0.68692420  0.42819713     0.06100
H1499       H  0.18096888  0.62483683  0.44171503     0.05100
H1500       H  0.18667923  0.65259973  0.41076723    -0.00700
H1501       H  0.15559933  0.64042215  0.41525165     0.00800
H1502       H  0.17163280  0.70659983  0.61259290     0.04500
H1503       H  0.14157429  0.69161430  0.61657845     0.06400
H1504       H  0.14535556  0.71936022  0.58487063     0.07300
C1505       C  0.16225640  0.58114762  0.20995467    -0.22300
C1506       C  0.14796711  0.56958516  0.24303075     0.09600
C1507       C  0.12823430  0.58244914  0.26319171     0.10000
C1508       C  0.12285884  0.60647102  0.24882068    -0.17300
C1509       C  0.13748394  0.61823097  0.21629824    -0.27700
C1510       C  0.15741201  0.60539024  0.19661658     0.18400
C1511       C  0.15537042  0.54473335  0.25824416     0.12300
C1512       C  0.11351651  0.57123945  0.30099452    -0.12000
H1513       H  0.10768221  0.61640877  0.26400261     0.12600
C1514       C  0.17342775  0.61706733  0.16114584    -0.22900
H1515       H  0.17755665  0.57124576  0.19508811     0.08300
C1516       C  0.14384477  0.52315061  0.24196077     0.04600
C1517       C  0.15180766  0.50013701  0.25775656    -0.20100
C1518       C  0.17151316  0.49827435  0.28830118    -0.12400
C1519       C  0.18318749  0.51998423  0.30419118     0.13300
C1520       C  0.17501661  0.54288099  0.28868936    -0.22800
C1521       C  0.12371219  0.52436730  0.20704254    -0.05900
H1522       H  0.14289711  0.48349629  0.24571910     0.14800
C1523       C  0.20364384  0.51994447  0.33872385    -0.16100
H1524       H  0.18388035  0.55952145  0.30088395     0.09200
H1525       H  0.16183093  0.62329755  0.13256574     0.07000
H1526       H  0.18739689  0.60404458  0.14788480     0.08200
H1527       H  0.18348469  0.63297980  0.17577043     0.07300
H1528       H  0.12600641  0.56686041  0.32947576     0.02100
H1529       H  0.10426300  0.55411825  0.28961083     0.02600
H1530       H  0.09905900  0.58397288  0.31343804     0.06100
H1531       H  0.11695153  0.50575899  0.19756787     0.05100
H1532       H  0.13091028  0.53346292  0.17631087    -0.00700
H1533       H  0.10778792  0.53499325  0.21990558     0.00800
H1534       H  0.22061994  0.52808695  0.32389665     0.04500
H1535       H  0.20819033  0.50141877  0.35145452     0.06400
H1536       H  0.19805413  0.53119610  0.36815066     0.07300
C1537       C  0.37690781  0.95743069  0.77683971    -0.22300
C1538       C  0.37435238  0.97462786  0.74211465     0.09600
C1539       C  0.37860886  0.96740710  0.69726814     0.10000
C1540       C  0.38479077  0.94284742  0.68804414    -0.17300
C1541       C  0.38678357  0.92544439  0.72272394    -0.27700
C1542       C  0.38329540  0.93295299  0.76782607     0.18400
C1543       C  0.36716485  0.00006589  0.75399575     0.12300
C1544       C  0.37649160  0.98557687  0.65931387    -0.12000
H1545       H  0.38757498  0.93706451  0.65354421     0.12600
C1546       C  0.38689840  0.91595856  0.80733374    -0.22900
H1547       H  0.37399479  0.96321143  0.81131385     0.08300
C1548       C  0.34217013  0.00679394  0.75780529     0.04600
C1549       C  0.33618109  0.03032753  0.77359662    -0.20100
C1550       C  0.35458456  0.04730692  0.78672831    -0.12400
C1551       C  0.37981259  0.04067774  0.78110144     0.13300
C1552       C  0.38565852  0.01715418  0.76467934    -0.22800
C1553       C  0.32180342  0.98885751  0.74641039    -0.05900
H1554       H  0.31686519  0.03501505  0.77745955     0.14800
C1555       C  0.40083001  0.05794161  0.79229552    -0.16100
H1556       H  0.40482200  0.01173088  0.76135184     0.09200
H1557       H  0.36922402  0.91393798  0.82589682     0.07000
H1558       H  0.40099716  0.92390748  0.83034036     0.08200
H1559       H  0.39341984  0.89742408  0.79763994     0.07300
H1560       H  0.38992826  0.00080720  0.66441686     0.02100
H1561       H  0.35753894  0.99324967  0.65821996     0.02600
H1562       H  0.38037195  0.97689692  0.62627177     0.06100
H1563       H  0.30323572  0.99702459  0.75141476     0.05100
H1564       H  0.32322454  0.97237997  0.76822808    -0.00700
H1565       H  0.32333977  0.98312595  0.71072243     0.00800
H1566       H  0.41900049  0.05013153  0.78265352     0.04500
H1567       H  0.40147719  0.06141970  0.82903126     0.06400
H1568       H  0.39855180  0.07552147  0.77382891     0.07300
C1569       C  0.29484788  0.01994703  0.96828378    -0.22300
C1570       C  0.27892510  0.02725988  0.00279944     0.09600
C1571       C  0.26842386  0.05101411  0.00166306     0.10000
C1572       C  0.27569184  0.06755230  0.96775528    -0.17300
C1573       C  0.29327846  0.06072736  0.93551600    -0.27700
C1574       C  0.30189423  0.03620857  0.93434017     0.18400
C1575       C  0.27827404  0.01161723  0.04348141     0.12300
C1576       C  0.25005893  0.05902398  0.03667452    -0.12000
H1577       H  0.26880095  0.08623517  0.96802909     0.12600
C1578       C  0.31889609  0.02661483  0.89827640    -0.22900
H1579       H  0.30301298  0.00177363  0.96919493     0.08300
C1580       C  0.26956143  0.98706073  0.04257557     0.04600
C1581       C  0.27627151  0.97094447  0.07745831    -0.20100
C1582       C  0.29155166  0.97903499  0.11262393    -0.12400
C1583       C  0.29819050  0.00414268  0.11558242     0.13300
C1584       C  0.29157024  0.02006780  0.08085494    -0.22800
C1585       C  0.25367383  0.97783144  0.00450072    -0.05900
H1586       H  0.27082527  0.95176150  0.07592512     0.14800
C1587       C  0.31268126  0.01417446  0.15496520    -0.16100
H1588       H  0.29835014  0.03885327  0.08134492     0.09200
H1589       H  0.31040658  0.01019238  0.88217651     0.07000
H1590       H  0.33684672  0.02128550  0.91340659     0.08200
H1591       H  0.32238540  0.04014987  0.87134319     0.07300
H1592       H  0.25864387  0.05900671  0.07051868     0.02100
H1593       H  0.23400207  0.04625285  0.03654881     0.02600
H1594       H  0.24316741  0.07787730  0.03001124     0.06100
H1595       H  0.24790667  0.95842369  0.00974954     0.05100
H1596       H  0.26387625  0.97881529  0.97225354    -0.00700
H1597       H  0.23677276  0.98924914  0.00206343     0.00800
H1598       H  0.33133130  0.00585411  0.15624614     0.04500
H1599       H  0.30268087  0.01009378  0.18664116     0.06400
H1600       H  0.31515881  0.03442083  0.15276608     0.07300
C1601       C  0.39510745  0.19305594  0.12833766    -0.22300
C1602       C  0.37097509  0.19743340  0.11354992     0.09600
C1603       C  0.35412963  0.20973048  0.14158548     0.10000
C1604       C  0.36156030  0.21644216  0.18498410    -0.17300
C1605       C  0.38537939  0.21100407  0.20077999    -0.27700
C1606       C  0.40256138  0.19943461  0.17186095     0.18400
C1607       C  0.36339426  0.18703143  0.06997171     0.12300
C1608       C  0.32830099  0.21536090  0.12592402    -0.12000
H1609       H  0.34845989  0.22524419  0.20730892     0.12600
C1610       C  0.42820536  0.19190892  0.18612405    -0.22900
H1611       H  0.40786691  0.18347866  0.10641022     0.08300
C1612       C  0.37011253  0.19832432  0.02929501     0.04600
C1613       C  0.36481180  0.18630909  0.98881174    -0.20100
C1614       C  0.35304110  0.16317217  0.98813491    -0.12400
C1615       C  0.34545390  0.15233685  0.02918776     0.13300
C1616       C  0.35082652  0.16446865  0.06965311    -0.22800
C1617       C  0.38294920  0.22295829  0.02874433    -0.05900
H1618       H  0.37048313  0.19481276  0.95752294     0.14800
C1619       C  0.33137199  0.12836229  0.03085229    -0.16100
H1620       H  0.34567315  0.15610723  0.10137893     0.09200
H1621       H  0.44206173  0.20150320  0.16486869     0.07000
H1622       H  0.43033430  0.17176636  0.18147882     0.08200
H1623       H  0.43248092  0.19596229  0.22166617     0.07300
H1624       H  0.31831936  0.19802302  0.11799133     0.02100
H1625       H  0.32909398  0.22700772  0.09533179     0.02600
H1626       H  0.31760802  0.22535285  0.15197826     0.06100
H1627       H  0.38659091  0.22936559  0.99393333     0.05100
H1628       H  0.40091831  0.22172900  0.04657714    -0.00700
H1629       H  0.37120153  0.23683892  0.04570632     0.00800
H1630       H  0.32550044  0.12374151  0.06560973     0.04500
H1631       H  0.34316371  0.11309737  0.01876884     0.06400
H1632       H  0.31449600  0.12962286  0.00973637     0.07300
C1633       C  0.34003597  0.14249919  0.62764266    -0.22300
C1634       C  0.33755677  0.16739141  0.61684920     0.09600
C1635       C  0.32674824  0.18379796  0.64748123     0.10000
C1636       C  0.31941232  0.17501099  0.68950042    -0.17300
C1637       C  0.32314655  0.15031820  0.70167406    -0.27700
C1638       C  0.33318326  0.13368166  0.66998322     0.18400
C1639       C  0.34771149  0.17594893  0.57397921     0.12300
C1640       C  0.32391617  0.21067158  0.63647466    -0.12000
H1641       H  0.31164998  0.18773428  0.71368557     0.12600
C1642       C  0.33816058  0.10709827  0.68109394    -0.22900
H1643       H  0.34834653  0.13017343  0.60335634     0.08300
C1644       C  0.37327569  0.17961637  0.56866298     0.04600
C1645       C  0.38246329  0.18520869  0.52607606    -0.20100
C1646       C  0.36668769  0.18718836  0.48867110    -0.12400
C1647       C  0.34076318  0.18466795  0.49484445     0.13300
C1648       C  0.33168041  0.17902116  0.53765967    -0.22800
C1649       C  0.39086119  0.17727855  0.60777426    -0.05900
H1650       H  0.40221796  0.18734418  0.52186541     0.14800
C1651       C  0.32249790  0.18672608  0.45672714    -0.16100
H1652       H  0.31203444  0.17623994  0.54270868     0.09200
H1653       H  0.35083457  0.10589191  0.71038225     0.07000
H1654       H  0.34696957  0.09726291  0.65260554     0.08200
H1655       H  0.32054423  0.09747269  0.68876385     0.07300
H1656       H  0.31192179  0.21279511  0.60646605     0.02100
H1657       H  0.34231610  0.21890490  0.62942347     0.02600
H1658       H  0.31542845  0.22102557  0.66466693     0.06100
H1659       H  0.41024601  0.18119682  0.59773973     0.05100
H1660       H  0.39012179  0.15832895  0.62151461    -0.00700
H1661       H  0.38567642  0.19050697  0.63456439     0.00800
H1662       H  0.30322823  0.18340882  0.46809744     0.04500
H1663       H  0.32672584  0.17287250  0.43042990     0.06400
H1664       H  0.32320062  0.20551469  0.44225004     0.07300
C1665       C  0.44632378  0.15730843  0.76873815    -0.22300
C1666       C  0.46297724  0.16454349  0.80244931     0.09600
C1667       C  0.45520062  0.16494959  0.84765552     0.10000
C1668       C  0.43095719  0.15773547  0.85828119    -0.17300
C1669       C  0.41419891  0.15062449  0.82459667    -0.27700
C1670       C  0.42198281  0.15032614  0.77916822     0.18400
C1671       C  0.48850195  0.17154891  0.78948870     0.12300
C1672       C  0.47240810  0.17328540  0.88449779    -0.12000
H1673       H  0.42486532  0.15812422  0.89297884     0.12600
C1674       C  0.40545209  0.14213496  0.74105952    -0.22900
H1675       H  0.45243495  0.15695886  0.73404411     0.08300
C1676       C  0.50743028  0.15390826  0.78650278     0.04600
C1677       C  0.53095759  0.16113803  0.77158107    -0.20100
C1678       C  0.53599488  0.18556528  0.75903725    -0.12400
C1679       C  0.51687257  0.20328210  0.76211144     0.13300
C1680       C  0.49350895  0.19603602  0.77801227    -0.22800
C1681       C  0.50263091  0.12736755  0.79815513    -0.05900
H1682       H  0.54542346  0.14749800  0.76873706     0.14800
C1683       C  0.51961696  0.22952308  0.74640543    -0.16100
H1684       H  0.47876586  0.20943590  0.77991563     0.09200
H1685       H  0.41417139  0.12649777  0.72314558     0.07000
H1686       H  0.40295518  0.15753193  0.71702177     0.08200
H1687       H  0.38695908  0.13590125  0.75230718     0.07300
H1688       H  0.47842723  0.19250536  0.87810365     0.02100
H1689       H  0.48889120  0.16124365  0.88558823     0.02600
H1690       H  0.46334879  0.17265676  0.91796004     0.06100
H1691       H  0.51942878  0.11595167  0.79383684     0.05100
H1692       H  0.48793629  0.11980592  0.77598341    -0.00700
H1693       H  0.49659495  0.12586571  0.83368185     0.00800
H1694       H  0.50532053  0.23346707  0.72062598     0.04500
H1695       H  0.53769283  0.23366486  0.73088644     0.06400
H1696       H  0.51692009  0.24217133  0.77528662     0.07300
C1697       C  0.96508969  0.38587417  0.67023381    -0.22300
C1698       C  0.97366085  0.38908119  0.71431008     0.09600
C1699       C  0.95779374  0.39891287  0.74733070     0.10000
C1700       C  0.93339215  0.40473915  0.73576925    -0.17300
C1701       C  0.92454300  0.40069228  0.69214099    -0.27700
C1702       C  0.94059441  0.39139802  0.65874197     0.18400
C1703       C  0.99820326  0.37936939  0.72677434     0.12300
C1704       C  0.96636274  0.40234396  0.79512788    -0.12000
H1705       H  0.92093623  0.41173502  0.76117453     0.12600
C1706       C  0.93229116  0.38632615  0.61120932    -0.22900
H1707       H  0.97729482  0.37808783  0.64513876     0.08300
C1708       C  0.00103695  0.35435930  0.73790655     0.04600
C1709       C  0.02358576  0.34628735  0.75541663    -0.20100
C1710       C  0.04345380  0.36260579  0.76187538    -0.12400
C1711       C  0.04124987  0.38726784  0.74706464     0.13300
C1712       C  0.01840788  0.39545577  0.73046821    -0.22800
C1713       C  0.97995299  0.33636830  0.73285166    -0.05900
H1714       H  0.02530809  0.32731696  0.76607784     0.14800
C1715       C  0.06258949  0.40518653  0.74702707    -0.16100
H1716       H  0.01626479  0.41453033  0.72072639     0.09200
H1717       H  0.93459625  0.36647945  0.60356137     0.07000
H1718       H  0.94377899  0.39720337  0.58750018     0.08200
H1719       H  0.91269130  0.39112486  0.60520354     0.07300
H1720       H  0.98228222  0.41527079  0.79601845     0.02100
H1721       H  0.97209549  0.38439196  0.80938373     0.02600
H1722       H  0.95152598  0.40994311  0.81677680     0.06100
H1723       H  0.98523472  0.31757080  0.74366105     0.05100
H1724       H  0.97416651  0.33540654  0.69708728    -0.00700
H1725       H  0.96405986  0.34235302  0.75366692     0.00800
H1726       H  0.06506028  0.41270239  0.71261651     0.04500
H1727       H  0.08037436  0.39667365  0.75663474     0.06400
H1728       H  0.05864029  0.42059904  0.77038947     0.07300
C1729       C  0.03389846  0.29628573  0.99205465    -0.22300
C1730       C  0.01151329  0.28888926  0.97254249     0.09600
C1731       C  0.01039545  0.28468585  0.92569911     0.10000
C1732       C  0.03125465  0.28995585  0.89910797    -0.17300
C1733       C  0.05294033  0.29952327  0.91848199    -0.27700
C1734       C  0.05461914  0.30148384  0.96566097     0.18400
C1735       C  0.98913988  0.29035389  0.00113430     0.12300
C1736       C  0.98714967  0.27516737  0.90381379    -0.12000
H1737       H  0.03006302  0.28819810  0.86286104     0.12600
C1738       C  0.07819595  0.30921056  0.98829328    -0.22900
H1739       H  0.03472738  0.29949968  0.02801113     0.08300
C1740       C  0.98636940  0.27593815  0.04024437     0.04600
C1741       C  0.96956373  0.28335924  0.07356877    -0.20100
C1742       C  0.95550512  0.30486663  0.06847930    -0.12400
C1743       C  0.95614816  0.31742648  0.02666653     0.13300
C1744       C  0.97318547  0.31015248  0.99389572    -0.22800
C1745       C  0.00149231  0.25306310  0.04711229    -0.05900
H1746       H  0.96855400  0.27315191  0.10477363     0.14800
C1747       C  0.93924936  0.33867358  0.01611775    -0.16100
H1748       H  0.97528137  0.32111270  0.96371389     0.09200
H1749       H  0.07656254  0.30873932  0.02549931     0.07000
H1750       H  0.08319377  0.32824793  0.97848928     0.08200
H1751       H  0.09310102  0.29635855  0.97837475     0.07300
H1752       H  0.97183899  0.28841029  0.90833806     0.02100
H1753       H  0.98188195  0.25730920  0.91918101     0.02600
H1754       H  0.98971048  0.27224564  0.86715931     0.06100
H1755       H  0.99645233  0.24351883  0.07880695     0.05100
H1756       H  0.02144644  0.25766033  0.04873556    -0.00700
H1757       H  0.99821006  0.24016214  0.01875670     0.00800
H1758       H  0.94431656  0.35506463  0.03634917     0.04500
H1759       H  0.91980138  0.33331770  0.02290950     0.06400
H1760       H  0.94047751  0.34413748  0.98021839     0.07300
C1761       C  0.19323295  0.23908653  0.88657296    -0.22300
C1762       C  0.19526812  0.22230183  0.85103119     0.09600
C1763       C  0.17922666  0.22411186  0.81384258     0.10000
C1764       C  0.16271138  0.24389038  0.81144404    -0.17300
C1765       C  0.16212423  0.26191896  0.84528650    -0.27700
C1766       C  0.17662103  0.25874925  0.88446904     0.18400
C1767       C  0.21654146  0.20532754  0.85070555     0.12300
C1768       C  0.18042284  0.20586436  0.77581090    -0.12000
H1769       H  0.15140932  0.24615431  0.78165186     0.12600
C1770       C  0.17504295  0.27565144  0.92458392    -0.22900
H1771       H  0.20535005  0.23734383  0.91542674     0.08300
C1772       C  0.23980026  0.21357107  0.83554037     0.04600
C1773       C  0.25992009  0.19756811  0.83694387    -0.20100
C1774       C  0.25741656  0.17335612  0.85267612    -0.12400
C1775       C  0.23400911  0.16498315  0.86767062     0.13300
C1776       C  0.21378441  0.18115403  0.86634389    -0.22800
C1777       C  0.24333147  0.23921756  0.81733763    -0.05900
H1778       H  0.27773637  0.20389314  0.82481495     0.14800
C1779       C  0.22982802  0.13966191  0.88675158    -0.16100
H1780       H  0.19584805  0.17499692  0.87812449     0.09200
H1781       H  0.19292942  0.28539604  0.92923816     0.07000
H1782       H  0.17106439  0.26464298  0.95516775     0.08200
H1783       H  0.16011282  0.28943006  0.92160771     0.07300
H1784       H  0.17654519  0.18711113  0.78878101     0.02100
H1785       H  0.19909582  0.20621762  0.76041299     0.02600
H1786       H  0.16668140  0.21002444  0.74916496     0.06100
H1787       H  0.26266074  0.24253175  0.80631535     0.05100
H1788       H  0.23884650  0.25294960  0.84367888    -0.00700
H1789       H  0.23102871  0.24204599  0.78793188     0.00800
H1790       H  0.22205387  0.14127113  0.92115392     0.04500
H1791       H  0.24697610  0.12874411  0.88940041     0.06400
H1792       H  0.21646714  0.12947672  0.86528560     0.07300
C1793       C  0.16220670  0.35682727  0.05014637    -0.22300
C1794       C  0.17898800  0.37648057  0.05092001     0.09600
C1795       C  0.18663660  0.38739598  0.01030977     0.10000
C1796       C  0.17592402  0.37948640  0.96982758    -0.17300
C1797       C  0.15816137  0.36057389  0.96912287    -0.27700
C1798       C  0.15211092  0.34836361  0.00957420     0.18400
C1799       C  0.18801617  0.38542503  0.09483924     0.12300
C1800       C  0.20613826  0.40723339  0.00978502    -0.12000
H1801       H  0.18103799  0.38847412  0.93865859     0.12600
C1802       C  0.13600279  0.32584677  0.01104036    -0.22900
H1803       H  0.15703741  0.34797521  0.08143053     0.08300
C1804       C  0.17647351  0.40527350  0.11688998     0.04600
C1805       C  0.18459238  0.41215265  0.15983769    -0.20100
C1806       C  0.20320993  0.39895560  0.18179324    -0.12400
C1807       C  0.21512880  0.37939886  0.15931543     0.13300
C1808       C  0.20743251  0.37295194  0.11586195    -0.22800
C1809       C  0.15467994  0.41823361  0.09627159    -0.05900
H1810       H  0.17512466  0.42672280  0.17770401     0.14800
C1811       C  0.23579605  0.36489697  0.18036500    -0.16100
H1812       H  0.21619444  0.35771065  0.09869955     0.09200
H1813       H  0.11945922  0.32970055  0.03181782     0.07000
H1814       H  0.14638211  0.31047664  0.02659455     0.08200
H1815       H  0.13022064  0.31968723  0.97714572     0.07300
H1816       H  0.22351941  0.40001125  0.02445970     0.02100
H1817       H  0.20000192  0.42330095  0.02977452     0.02600
H1818       H  0.21013073  0.41361344  0.97508560     0.06100
H1819       H  0.14758920  0.43303069  0.11848845     0.05100
H1820       H  0.13946070  0.40484876  0.09044947    -0.00700
H1821       H  0.16001463  0.42666600  0.06376790     0.00800
H1822       H  0.23004447  0.34538089  0.18399722     0.04500
H1823       H  0.24126647  0.37199355  0.21389830     0.06400
H1824       H  0.25235002  0.36580359  0.15839966     0.07300
C1825       C  0.13843872  0.31912709  0.60119456    -0.22300
C1826       C  0.15588977  0.33714964  0.59005150     0.09600
C1827       C  0.16901206  0.34948041  0.62423385     0.10000
C1828       C  0.16383130  0.34402961  0.66915774    -0.17300
C1829       C  0.14528998  0.32699997  0.68100076    -0.27700
C1830       C  0.13284455  0.31386664  0.64630139     0.18400
C1831       C  0.15760630  0.34575050  0.54321391     0.12300
C1832       C  0.18762242  0.36933186  0.61333565    -0.12000
H1833       H  0.17352507  0.35418131  0.69514439     0.12600
C1834       C  0.11356244  0.29449906  0.65598402    -0.22900
H1835       H  0.12841667  0.30992784  0.57441935     0.08300
C1836       C  0.17646058  0.33791096  0.51398888     0.04600
C1837       C  0.17985553  0.35025540  0.47303804    -0.20100
C1838       C  0.16479060  0.37020798  0.46116077    -0.12400
C1839       C  0.14467672  0.37666580  0.48908545     0.13300
C1840       C  0.14141384  0.36434484  0.52989231    -0.22800
C1841       C  0.19302931  0.31679495  0.52630219    -0.05900
H1842       H  0.19480115  0.34486284  0.45095559     0.14800
C1843       C  0.12633515  0.39618634  0.47589936    -0.16100
H1844       H  0.12671945  0.36986131  0.55244087     0.09200
H1845       H  0.12132702  0.28031808  0.67872640     0.07000
H1846       H  0.10728239  0.28509165  0.62481841     0.08200
H1847       H  0.09704765  0.30300757  0.67152416     0.07300
H1848       H  0.17850329  0.38443441  0.59461592     0.02100
H1849       H  0.20270995  0.36165873  0.59245802     0.02600
H1850       H  0.19603101  0.37731523  0.64415934     0.06100
H1851       H  0.20674266  0.31294906  0.49947705     0.05100
H1852       H  0.18169138  0.29997441  0.53146648    -0.00700
H1853       H  0.20324296  0.32101098  0.55773645     0.00800
H1854       H  0.11085579  0.39739235  0.50027905     0.04500
H1855       H  0.11836157  0.39178850  0.44242432     0.06400
H1856       H  0.13543711  0.41448098  0.47487359     0.07300
C1857       C  0.18861143  0.49859917  0.76388872    -0.22300
C1858       C  0.16369446  0.49384278  0.77291723     0.09600
C1859       C  0.14624577  0.51283620  0.76908918     0.10000
C1860       C  0.15405082  0.53617963  0.75489853    -0.17300
C1861       C  0.17895996  0.54099120  0.74436265    -0.27700
C1862       C  0.19655999  0.52187757  0.74953063     0.18400
C1863       C  0.15631312  0.46854690  0.78519411     0.12300
C1864       C  0.11933039  0.50829537  0.77901408    -0.12000
H1865       H  0.14050266  0.55065392  0.75139684     0.12600
C1866       C  0.22352615  0.52526339  0.73828895    -0.22900
H1867       H  0.20180982  0.48378123  0.76722157     0.08300
C1868       C  0.15356453  0.45006647  0.75224562     0.04600
C1869       C  0.14753948  0.42606715  0.76560564    -0.20100
C1870       C  0.14415658  0.42020539  0.81111075    -0.12400
C1871       C  0.14712583  0.43879315  0.84418177     0.13300
C1872       C  0.15292795  0.46280498  0.83061034    -0.22800
C1873       C  0.15680303  0.45575169  0.70304400    -0.05900
H1874       H  0.14527273  0.41181589  0.74039616     0.14800
C1875       C  0.14552231  0.43395620  0.89403858    -0.16100
H1876       H  0.15540963  0.47707139  0.85572913     0.09200
H1877       H  0.22545398  0.53112987  0.70274440     0.07000
H1878       H  0.23412308  0.50797333  0.74247640     0.08200
H1879       H  0.23195146  0.53918864  0.76095573     0.07300
H1880       H  0.11710794  0.50245538  0.81452203     0.02100
H1881       H  0.11208365  0.49362984  0.75653942     0.02600
H1882       H  0.10807270  0.52507332  0.77376130     0.06100
H1883       H  0.15358052  0.43926825  0.68172031     0.05100
H1884       H  0.17588784  0.46242838  0.69670721    -0.00700
H1885       H  0.14346571  0.47014968  0.69277605     0.00800
H1886       H  0.16299306  0.43991218  0.91044942     0.04500
H1887       H  0.14280925  0.41434151  0.90255262     0.06400
H1888       H  0.13002015  0.44464516  0.90854541     0.07300
loop_ 
_geom_bond_atom_site_label_1 
_geom_bond_atom_site_label_2 
_geom_bond_distance 
_geom_bond_site_symmetry_2 
_ccdc_geom_bond_type 
Fe1          O17   2.066       .  S
Fe1           O7   2.057       .  S
Fe1          O14   2.059       .  S
Fe1           O6   2.060       .  S
Fe1          O12   1.971       .  S
Fe2           O5   2.062       .  S
Fe2           O9   2.070       .  S
Fe2          O13   2.068       .  S
Fe2          O18   2.066       .  S
Fe2          O12   1.967       .  S
Fe3          O21   2.068       .  S
Fe3           O8   2.065       .  S
Fe3          O15   2.074       .  S
Fe3           O4   2.056       .  S
Fe3          O12   1.979       .  S
O4           C11   1.265       .  A
O5           C19   1.268       .  A
O6           C11   1.267       .  A
O7           C10   1.270       .  A
O8           C20   1.270       .  A
O9           C22   1.270       .  A
C10          O15   1.271       .  A
C10        C1765   1.476       .  S
C11        C1829   1.488       .  S
O13          C16   1.268       .  A
O14          C16   1.268       .  A
C16        C1870   1.474       .  S
O17          C22   1.268       .  A
O18          C20   1.270       .  A
C19          O21   1.268       .  A
C19        C1733   1.477       .  S
C20        C1710   1.479       .  S
C22        C1797   1.476       .  S
Fe23         O39   2.057       .  S
Fe23         O29   2.052       .  S
Fe23         O36   2.061       .  S
Fe23         O28   2.048       .  S
Fe23         O34   1.952       .  S
Fe24         O27   2.056       .  S
Fe24         O31   2.081       .  S
Fe24         O35   2.058       .  S
Fe24         O40   2.073       .  S
Fe24         O34   1.951       .  S
Fe25         O43   2.085       .  S
Fe25         O30   2.064       .  S
Fe25         O37   2.050       .  S
Fe25         O26   2.087       .  S
Fe25         O34   1.959       .  S
O26          C33   1.272       .  A
O27          C41   1.267       .  A
O28          C33   1.267       .  A
O29          C32   1.268       .  A
O30          C42   1.269       .  A
O31          C44   1.270       .  A
C32          O37   1.267       .  A
C32        C1637   1.471       .  S
C33        C1774   1.478       .  S
O35          C38   1.269       .  A
O36          C38   1.270       .  A
C38        C1614   1.479       .  S
O39          C44   1.266       .  A
O40          C42   1.272       .  A
C41          O43   1.274       .  A
C41        C1550   1.495       .  S
C42        C1573   1.472       .  S
C44        C1669   1.475       .  S
Fe45         O61   2.047       .  S
Fe45         O51   2.058       .  S
Fe45         O58   2.077       .  S
Fe45         O50   2.047       .  S
Fe45         O56   1.972       .  S
Fe46         O49   2.059       .  S
Fe46         O53   2.061       .  S
Fe46         O57   2.064       .  S
Fe46         O62   2.050       .  S
Fe46         O56   1.973       .  S
Fe47         O65   2.063       .  S
Fe47         O52   2.071       .  S
Fe47         O59   2.072       .  S
Fe47         O48   2.062       .  S
Fe47         O56   1.986       .  S
O48          C55   1.270       .  A
O49          C63   1.273       .  A
O50          C55   1.269       .  A
O51          C54   1.265       .  A
O52          C64   1.268       .  A
O53          C66   1.267       .  A
C54          O59   1.267       .  A
C54        C1413   1.480       .  S
C55        C1477   1.467       .  S
O57          C60   1.268       .  A
O58          C60   1.270       .  A
C60        C1509   1.479       .  S
O61          C66   1.263       .  A
O62          C64   1.263       .  A
C63          O65   1.270       .  A
C63        C1349   1.477       .  S
C64        C1381   1.480       .  S
C66        C1445   1.475       .  S
Fe67         O83   2.061       .  S
Fe67         O73   2.063       .  S
Fe67         O80   2.070       .  S
Fe67         O72   2.051       .  S
Fe67         O78   1.952       .  S
Fe68         O71   2.051       .  S
Fe68         O75   2.078       .  S
Fe68         O79   2.049       .  S
Fe68         O84   2.070       .  S
Fe68         O78   1.947       .  S
Fe69         O87   2.090       .  S
Fe69         O74   2.064       .  S
Fe69         O81   2.055       .  S
Fe69         O70   2.091       .  S
Fe69         O78   1.959       .  S
O70          C77   1.273       .  A
O71          C85   1.268       .  A
O72          C77   1.267       .  A
O73          C76   1.271       .  A
O74          C86   1.269       .  A
O75          C88   1.270       .  A
C76          O81   1.269       .  A
C76        C1285   1.472       .  S
C77        C1422   1.486       .  S
O79          C82   1.267       .  A
O80          C82   1.271       .  A
C82        C1262   1.479       .  S
O83          C88   1.267       .  A
O84          C86   1.271       .  A
C85          O87   1.272       .  A
C85        C1221   1.498   1_565  S
C86        C1582   1.470       .  S
C88        C1317   1.480       .  S
Fe89        O105   2.060       .  S
Fe89         O95   2.057       .  S
Fe89        O102   2.071       .  S
Fe89         O94   2.049       .  S
Fe89        O100   1.961       .  S
Fe90         O93   2.049       .  S
Fe90         O97   2.070       .  S
Fe90        O101   2.045       .  S
Fe90        O106   2.055       .  S
Fe90        O100   1.957       .  S
Fe91        O109   2.080       .  S
Fe91         O96   2.065       .  S
Fe91        O103   2.057       .  S
Fe91         O92   2.079       .  S
Fe91        O100   1.972       .  S
O92          C99   1.271       .  A
O93         C107   1.268       .  A
O94          C99   1.268       .  A
O95          C98   1.266       .  A
O96         C108   1.268       .  A
O97         C110   1.268       .  A
C98         O103   1.269       .  A
C98        C1166   1.483       .  S
C99        C1093   1.477       .  S
O101        C104   1.265       .  A
O102        C104   1.269       .  A
C104       C1134   1.479       .  S
O105        C110   1.268       .  A
O106        C108   1.267       .  A
C107        O109   1.272       .  A
C107       C1061   1.470       .  S
C108       C1029   1.475       .  S
C110       C1189   1.472       .  S
Fe111       O127   2.062       .  S
Fe111       O117   2.050       .  S
Fe111       O124   2.059       .  S
Fe111       O116   2.058       .  S
Fe111       O122   1.969       .  S
Fe112       O115   2.063       .  S
Fe112       O119   2.043       .  S
Fe112       O123   2.065       .  S
Fe112       O128   2.055       .  S
Fe112       O122   1.958       .  S
Fe113       O131   2.073       .  S
Fe113       O118   2.078       .  S
Fe113       O125   2.073       .  S
Fe113       O114   2.065       .  S
Fe113       O122   1.970       .  S
O114        C121   1.272       .  A
O115        C129   1.269       .  A
O116        C121   1.270       .  A
O117        C120   1.265       .  A
O118        C130   1.269       .  A
O119        C132   1.265       .  A
C120        O125   1.268       .  A
C120       C1102   1.474       .  S
C121        C974   1.470       .  S
O123        C126   1.269       .  A
O124        C126   1.267       .  A
C126       C1006   1.473       .  S
O127        C132   1.266       .  A
O128        C130   1.267       .  A
C129        O131   1.272       .  A
C129       C1742   1.486       .  S
C130        C901   1.499       .  S
C132        C942   1.457       .  S
Fe133       O149   2.070       .  S
Fe133       O139   2.046       .  S
Fe133       O146   2.049       .  S
Fe133       O138   2.075       .  S
Fe133       O144   1.961       .  S
Fe134       O137   2.070       .  S
Fe134       O141   2.056       .  S
Fe134       O145   2.074       .  S
Fe134       O150   2.055       .  S
Fe134       O144   1.955       .  S
Fe135       O153   2.058       .  S
Fe135       O140   2.075       .  S
Fe135       O147   2.081       .  S
Fe135       O136   2.054       .  S
Fe135       O144   1.966       .  S
O136        C143   1.268       .  A
O137        C151   1.274       .  A
O138        C143   1.271       .  A
O139        C142   1.266       .  A
O140        C152   1.268       .  A
O141        C154   1.268       .  A
C142        O147   1.271       .  A
C142        C773   1.475       .  S
C143        C837   1.476       .  S
O145        C148   1.271       .  A
O146        C148   1.268       .  A
C148        C869   1.474       .  S
O149        C154   1.268       .  A
O150        C152   1.267       .  A
C151        O153   1.269       .  A
C151       C1358   1.480       .  S
C152        C741   1.497       .  S
C154        C805   1.481       .  S
Fe155       O171   2.059       .  S
Fe155       O161   2.068       .  S
Fe155       O168   2.078       .  S
Fe155       O160   2.049       .  S
Fe155       O166   1.956       .  S
Fe156       O159   2.051       .  S
Fe156       O163   2.065       .  S
Fe156       O167   2.043       .  S
Fe156       O172   2.061       .  S
Fe156       O166   1.949       .  S
Fe157       O175   2.090       .  S
Fe157       O162   2.065       .  S
Fe157       O169   2.049       .  S
Fe157       O158   2.087       .  S
Fe157       O166   1.966       .  S
O158        C165   1.272       .  A
O159        C173   1.266       .  A
O160        C165   1.267       .  A
O161        C164   1.271       .  A
O162        C174   1.269       .  A
O163        C176   1.267       .  A
C164        O169   1.268       .  A
C164        C686   1.460       .  S
C165        C782   1.485       .  S
O167        C170   1.267       .  A
O168        C170   1.272       .  A
C170        C645   1.469       .  S
O171        C176   1.266       .  A
O172        C174   1.271       .  A
C173        O175   1.273       .  A
C173        C613   1.475       .  S
C174       C1038   1.478       .  S
C176        C709   1.469       .  S
Fe177       O193   2.046       .  S
Fe177       O183   2.051       .  S
Fe177       O190   2.065       .  S
Fe177       O182   2.044       .  S
Fe177       O188   1.976       .  S
Fe178       O181   2.059       .  S
Fe178       O185   2.055       .  S
Fe178       O189   2.064       .  S
Fe178       O194   2.052       .  S
Fe178       O188   1.972       .  S
Fe179       O197   2.071       .  S
Fe179       O184   2.071       .  S
Fe179       O191   2.072       .  S
Fe179       O180   2.071       .  S
Fe179       O188   1.986       .  S
O180        C187   1.272       .  A
O181        C195   1.270       .  A
O182        C187   1.268       .  A
O183        C186   1.264       .  A
O184        C196   1.269       .  A
O185        C198   1.269       .  A
C186        O191   1.267       .  A
C186        C558   1.481       .  S
C187       C1605   1.467       .  S
O189        C192   1.266       .  A
O190        C192   1.267       .  A
C192       C1230   1.484       .  S
O193        C198   1.265       .  A
O194        C196   1.266       .  A
C195        O197   1.270       .  A
C195        C581   1.481       .  S
C196       C1198   1.482       .  S
C198       C1646   1.479       .  S
Fe199       O215   2.064       .  S
Fe199       O205   2.061       .  S
Fe199       O212   2.066       .  S
Fe199       O204   2.052       .  S
Fe199       O210   1.966       .  S
Fe200       O203   2.056       .  S
Fe200       O207   2.071       .  S
Fe200       O211   2.050       .  S
Fe200       O216   2.073       .  S
Fe200       O210   1.958       .  S
Fe201       O219   2.081       .  S
Fe201       O206   2.066       .  S
Fe201       O213   2.065       .  S
Fe201       O202   2.087       .  S
Fe201       O210   1.969       .  S
O202        C209   1.272       .  A
O203        C217   1.265       .  A
O204        C209   1.267       .  A
O205        C208   1.268       .  A
O206        C218   1.271       .  A
O207        C220   1.270       .  A
C208        O213   1.270       .  A
C208       C1806   1.467       .  S
C209        C549   1.479       .  S
O211        C214   1.267       .  A
O212        C214   1.268       .  A
C214       C1838   1.474       .  S
O215        C220   1.269       .  A
O216        C218   1.272       .  A
C217        O219   1.271       .  A
C217       C1518   1.476       .  S
C218        C517   1.483       .  S
C220        C910   1.479       .  S
Fe221       O237   2.064       .  S
Fe221       O227   2.048       .  S
Fe221       O234   2.054       .  S
Fe221       O226   2.065       .  S
Fe221       O232   1.970       .  S
Fe222       O225   2.059       .  S
Fe222       O229   2.060       .  S
Fe222       O233   2.064       .  S
Fe222       O238   2.049       .  S
Fe222       O232   1.969       .  S
Fe223       O241   2.069       .  S
Fe223       O228   2.066       .  S
Fe223       O235   2.066       .  S
Fe223       O224   2.070       .  S
Fe223       O232   1.978       .  S
O224        C231   1.267       .  A
O225        C239   1.268       .  A
O226        C231   1.267       .  A
O227        C230   1.269       .  A
O228        C240   1.269       .  A
O229        C242   1.264       .  A
C230        O235   1.270       .  A
C230        C933   1.461       .  S
C231        C453   1.482       .  S
O233        C236   1.271       .  A
O234        C236   1.269       .  A
C236        C965   1.476       .  S
O237        C242   1.265       .  A
O238        C240   1.268       .  A
C239        O241   1.269       .  A
C239        C878   1.476       .  S
C240        C485   1.478       .  S
C242       C1701   1.468       .  S
Fe243       O259   2.057       .  S
Fe243       O249   2.064       .  S
Fe243       O256   2.065       .  S
Fe243       O248   2.049       .  S
Fe243       O254   1.968       .  S
Fe244       O247   2.067       .  S
Fe244       O251   2.062       .  S
Fe244       O255   2.073       .  S
Fe244       O260   2.056       .  S
Fe244       O254   1.966       .  S
Fe245       O263   2.065       .  S
Fe245       O250   2.076       .  S
Fe245       O257   2.074       .  S
Fe245       O246   2.072       .  S
Fe245       O254   1.975       .  S
O246        C253   1.272       .  A
O247        C261   1.272       .  A
O248        C253   1.271       .  A
O249        C252   1.266       .  A
O250        C262   1.269       .  A
O251        C264   1.267       .  A
C252        O257   1.267       .  A
C252        C462   1.490       .  S
C253       C1125   1.482       .  S
O255        C258   1.268       .  A
O256        C258   1.267       .  A
C258        C622   1.479       .  S
O259        C264   1.270       .  A
O260        C262   1.266       .  A
C261        O263   1.271       .  A
C261        C590   1.485       .  S
C262       C1678   1.482       .  S
C264       C1157   1.491       .  S
Fe265       O281   2.055       .  S
Fe265       O271   2.049       .  S
Fe265       O278   2.055       .  S
Fe265       O270   2.054       .  S
Fe265       O276   1.976       .  S
Fe266       O269   2.062       .  S
Fe266       O273   2.054       .  S
Fe266       O277   2.063       .  S
Fe266       O282   2.056       .  S
Fe266       O276   1.971       .  S
Fe267       O285   2.072       .  S
Fe267       O272   2.073       .  S
Fe267       O279   2.077       .  S
Fe267       O268   2.068       .  S
Fe267       O276   1.982       .  S
O268        C275   1.271       .  A
O269        C283   1.272       .  A
O270        C275   1.269       .  A
O271        C274   1.264       .  A
O272        C284   1.268       .  A
O273        C286   1.268       .  A
C274        O279   1.268       .  A
C274        C389   1.474       .  S
C275        C654   1.464       .  S
O277        C280   1.267       .  A
O278        C280   1.266       .  A
C280       C1070   1.481       .  S
O281        C286   1.267       .  A
O282        C284   1.266       .  A
C283        O285   1.272       .  A
C283        C421   1.482       .  S
C284       C1326   1.494       .  S
C286        C677   1.468       .  S
Fe287       O303   2.060       .  S
Fe287       O293   2.077       .  S
Fe287       O300   2.080       .  S
Fe287       O292   2.053       .  S
Fe287       O298   1.955       .  S
Fe288       O291   2.051       .  S
Fe288       O295   2.070       .  S
Fe288       O299   2.048       .  S
Fe288       O304   2.070       .  S
Fe288       O298   1.948       .  S
Fe289       O307   2.081       .  S
Fe289       O294   2.060       .  S
Fe289       O301   2.056       .  S
Fe289       O290   2.080       .  S
Fe289       O298   1.960       .  S
O290        C297   1.270       .  A
O291        C305   1.266       .  A
O292        C297   1.265       .  A
O293        C296   1.273       .  A
O294        C306   1.268       .  A
O295        C308   1.269       .  A
C296        O301   1.270       .  A
C296        C814   1.473       .  S
C297        C398   1.486       .  S
O299        C302   1.268       .  A
O300        C302   1.273       .  A
C302        C846   1.479       .  S
O303        C308   1.267       .  A
O304        C306   1.272       .  A
C305        O307   1.272       .  A
C305        C997   1.484       .  S
C306        C494   1.478       .  S
C308       C1390   1.472       .  S
Fe309       O325   2.055       .  S
Fe309       O315   2.055       .  S
Fe309       O322   2.062       .  S
Fe309       O314   2.052       .  S
Fe309       O320   1.976       .  S
Fe310       O313   2.060       .  S
Fe310       O317   2.056       .  S
Fe310       O321   2.067       .  S
Fe310       O326   2.058       .  S
Fe310       O320   1.975       .  S
Fe311       O329   2.066       .  S
Fe311       O316   2.058       .  S
Fe311       O323   2.062       .  S
Fe311       O312   2.061       .  S
Fe311       O320   1.984       .  S
O312        C319   1.268       .  A
O313        C327   1.270       .  A
O314        C319   1.267       .  A
O315        C318   1.266       .  A
O316        C328   1.268       .  A
O317        C330   1.269       .  A
C318        O323   1.267       .  A
C318        C366   1.471       .  S
C319       C1253   1.468       .  S
O321        C324   1.268       .  A
O322        C324   1.268       .  A
C324       C1541   1.475       .  S
O325        C330   1.265       .  A
O326        C328   1.267       .  A
C327        O329   1.269       .  A
C327        C430   1.478       .  S
C328        C718   1.476       .  S
C330       C1294   1.484       .  S
Fe331       O347   2.051       .  S
Fe331       O337   2.056       .  S
Fe331       O344   2.055       .  S
Fe331       O336   2.045       .  S
Fe331       O342   1.951       .  S
Fe332       O335   2.051       .  S
Fe332       O339   2.073       .  S
Fe332       O343   2.052       .  S
Fe332       O348   2.068       .  S
Fe332       O342   1.952       .  S
Fe333       O351   2.073       .  S
Fe333       O338   2.076       .  S
Fe333       O345   2.064       .  S
Fe333       O334   2.078       .  S
Fe333       O342   1.963       .  S
O334        C341   1.268       .  A
O335        C349   1.266       .  A
O336        C341   1.264       .  A
O337        C340   1.270       .  A
O338        C350   1.273       .  A
O339        C352   1.269       .  A
C340        O345   1.272       .  A
C340       C1454   1.471       .  S
C341        C357   1.472       .  S
O343        C346   1.269       .  A
O344        C346   1.267       .  A
C346       C1486   1.479       .  S
O347        C352   1.265       .  A
O348        C350   1.274       .  A
C349        O351   1.268       .  A
C349       C1861   1.486       .  S
C350        C526   1.483       .  S
C352        C750   1.482       .  S
C353        C354   1.398       .  A
C353        C358   1.396       .  A
C353        H363   1.085       .  S
C354        C359   1.475       .  S
C354        C355   1.409       .  A
C355        C356   1.406       .  A
C355        C360   1.505       .  S
C356        C357   1.405       .  A
C356        H361   1.084       .  S
C357        C358   1.418       .  A
C358        C362   1.510       .  S
C359        C364   1.410       .  A
C359        C368   1.400       .  A
C360        H376   1.110       .  S
C360        H377   1.109       .  S
C360        H378   1.111       .  S
C362        H373   1.110       .  S
C362        H374   1.111       .  S
C362        H375   1.105       .  S
C364        C365   1.402       .  A
C364        C369   1.507       .  S
C365        C366   1.404       .  A
C365        H370   1.084       .  S
C366        C367   1.417       .  A
C367        C368   1.401       .  A
C367        C371   1.509       .  S
C368        H372   1.085       .  S
C369        H379   1.111       .  S
C369        H380   1.110       .  S
C369        H381   1.109       .  S
C371        H382   1.111       .  S
C371        H383   1.106       .  S
C371        H384   1.110       .  S
C385        C386   1.399       .  A
C385        C390   1.398       .  A
C385        H395   1.085       .  S
C386        C391   1.480       .  S
C386        C387   1.411       .  A
C387        C388   1.409       .  A
C387        C392   1.504       .  S
C388        C389   1.405       .  A
C388        H393   1.084       .  S
C389        C390   1.417       .  A
C390        C394   1.509       .  S
C391        C396   1.410       .  A
C391        C400   1.400       .  A
C392        H408   1.110       .  S
C392        H409   1.110       .  S
C392        H410   1.111       .  S
C394        H405   1.111       .  S
C394        H406   1.110       .  S
C394        H407   1.106       .  S
C396        C397   1.404       .  A
C396        C401   1.506       .  S
C397        C398   1.407       .  A
C397        H402   1.084       .  S
C398        C399   1.420       .  A
C399        C400   1.404       .  A
C399        C403   1.509       .  S
C400        H404   1.084       .  S
C401        H411   1.111       .  S
C401        H412   1.110       .  S
C401        H413   1.110       .  S
C403        H414   1.111       .  S
C403        H415   1.109       .  S
C403        H416   1.111       .  S
C417        C418   1.401       .  A
C417        C422   1.397       .  A
C417        H427   1.084       .  S
C418        C423   1.484       .  S
C418        C419   1.414       .  A
C419        C420   1.407       .  A
C419        C424   1.507       .  S
C420        C421   1.405       .  A
C420        H425   1.084       .  S
C421        C422   1.415       .  A
C422        C426   1.506       .  S
C423        C428   1.414       .  A
C423        C432   1.402       .  A
C424        H440   1.108       .  S
C424        H441   1.110       .  S
C424        H442   1.111       .  S
C426        H437   1.111       .  S
C426        H438   1.110       .  S
C426        H439   1.106       .  S
C428        C429   1.406       .  A
C428        C433   1.507       .  S
C429        C430   1.406       .  A
C429        H434   1.084       .  S
C430        C431   1.413       .  A
C431        C432   1.398       .  A
C431        C435   1.508       .  S
C432        H436   1.084       .  S
C433        H443   1.111       .  S
C433        H444   1.108       .  S
C433        H445   1.110       .  S
C435        H446   1.110       .  S
C435        H447   1.109       .  S
C435        H448   1.111       .  S
C449        C450   1.400       .  A
C449        C454   1.402       .  A
C449        H459   1.085       .  S
C450        C455   1.486       .  S
C450        C451   1.411       .  A
C451        C452   1.408       .  A
C451        C456   1.505       .  S
C452        C453   1.406       .  A
C452        H457   1.084       .  S
C453        C454   1.419       .  A
C454        C458   1.510       .  S
C455        C460   1.410       .  A
C455        C464   1.400       .  A
C456        H472   1.110       .  S
C456        H473   1.110       .  S
C456        H474   1.111       .  S
C458        H469   1.110       .  S
C458        H470   1.111       .  S
C458        H471   1.107       .  S
C460        C461   1.406       .  A
C460        C465   1.507       .  S
C461        C462   1.409       .  A
C461        H466   1.084       .  S
C462        C463   1.423       .  A
C463        C464   1.406       .  A
C463        C467   1.509       .  S
C464        H468   1.085       .  S
C465        H475   1.111       .  S
C465        H476   1.110       .  S
C465        H477   1.110       .  S
C467        H478   1.111       .  S
C467        H479   1.103       .  S
C467        H480   1.110       .  S
C481        C482   1.400       .  A
C481        C486   1.397       .  A
C481        H491   1.085       .  S
C482        C487   1.474       .  S
C482        C483   1.408       .  A
C483        C484   1.403       .  A
C483        C488   1.506       .  S
C484        C485   1.407       .  A
C484        H489   1.084       .  S
C485        C486   1.416       .  A
C486        C490   1.507       .  S
C487        C492   1.412       .  A
C487        C496   1.399       .  A
C488        H504   1.110       .  S
C488        H505   1.108       .  S
C488        H506   1.111       .  S
C490        H501   1.110       .  S
C490        H502   1.111       .  S
C490        H503   1.108       .  S
C492        C493   1.397       .  A
C492        C497   1.511       .  S
C493        C494   1.405       .  A
C493        H498   1.084       .  S
C494        C495   1.423       .  A
C495        C496   1.404       .  A
C495        C499   1.510       .  S
C496        H500   1.085       .  S
C497        H507   1.111       .  S
C497        H508   1.110       .  S
C497        H509   1.107       .  S
C499        H510   1.111       .  S
C499        H511   1.102       .  S
C499        H512   1.110       .  S
C513        C514   1.401       .  A
C513        C518   1.402       .  A
C513        H523   1.085       .  S
C514        C519   1.480       .  S
C514        C515   1.409       .  A
C515        C516   1.406       .  A
C515        C520   1.506       .  S
C516        C517   1.408       .  A
C516        H521   1.084       .  S
C517        C518   1.417       .  A
C518        C522   1.509       .  S
C519        C524   1.411       .  A
C519        C528   1.402       .  A
C520        H536   1.110       .  S
C520        H537   1.108       .  S
C520        H538   1.111       .  S
C522        H533   1.108       .  S
C522        H534   1.111       .  S
C522        H535   1.110       .  S
C524        C525   1.398       .  A
C524        C529   1.511       .  S
C525        C526   1.406       .  A
C525        H530   1.085       .  S
C526        C527   1.421       .  A
C527        C528   1.408       .  A
C527        C531   1.508       .  S
C528        H532   1.085       .  S
C529        H539   1.111       .  S
C529        H540   1.110       .  S
C529        H541   1.108       .  S
C531        H542   1.110       .  S
C531        H543   1.103       .  S
C531        H544   1.110       .  S
C545        C546   1.403       .  A
C545        C550   1.409       .  A
C545        H555   1.084       .  S
C546        C551   1.482       .  S
C546        C547   1.410       .  A
C547        C548   1.399       .  A
C547        C552   1.508       .  S
C548        C549   1.403       .  A
C548        H553   1.084       .  S
C549        C550   1.418       .  A
C550        C554   1.507       .  S
C551        C556   1.410       .  A
C551        C560   1.400       .  A
C552        H568   1.110       .  S
C552        H569   1.110       .  S
C552        H570   1.111       .  S
C554        H565   1.110       .  S
C554        H566   1.111       .  S
C554        H567   1.107       .  S
C556        C557   1.406       .  A
C556        C561   1.505       .  S
C557        C558   1.405       .  A
C557        H562   1.084       .  S
C558        C559   1.418       .  A
C559        C560   1.402       .  A
C559        C563   1.509       .  S
C560        H564   1.085       .  S
C561        H571   1.111       .  S
C561        H572   1.110       .  S
C561        H573   1.110       .  S
C563        H574   1.110       .  S
C563        H575   1.108       .  S
C563        H576   1.110       .  S
C577        C578   1.401       .  A
C577        C582   1.397       .  A
C577        H587   1.085       .  S
C578        C583   1.481       .  S
C578        C579   1.411       .  A
C579        C580   1.407       .  A
C579        C584   1.506       .  S
C580        C581   1.407       .  A
C580        H585   1.084       .  S
C581        C582   1.415       .  A
C582        C586   1.507       .  S
C583        C588   1.410       .  A
C583        C592   1.402       .  A
C584        H600   1.109       .  S
C584        H601   1.111       .  S
C584        H602   1.111       .  S
C586        H597   1.111       .  S
C586        H598   1.110       .  S
C586        H599   1.108       .  S
C588        C589   1.403       .  A
C588        C593   1.507       .  S
C589        C590   1.408       .  A
C589        H594   1.084       .  S
C590        C591   1.417       .  A
C591        C592   1.402       .  A
C591        C595   1.507       .  S
C592        H596   1.084       .  S
C593        H603   1.111       .  S
C593        H604   1.108       .  S
C593        H605   1.110       .  S
C595        H606   1.107       .  S
C595        H607   1.111       .  S
C595        H608   1.111       .  S
C609        C610   1.401       .  A
C609        C614   1.402       .  A
C609        H619   1.085       .  S
C610        C615   1.482       .  S
C610        C611   1.411       .  A
C611        C612   1.406   1_545  A
C611        C616   1.506       .  S
C612        C613   1.405       .  A
C612        H617   1.085       .  S
C613        C614   1.417   1_565  A
C614        C618   1.509       .  S
C615        C620   1.413       .  A
C615        C624   1.399       .  A
C616        H632   1.110       .  S
C616        H633   1.109       .  S
C616        H634   1.111   1_545  S
C618        H629   1.111       .  S
C618        H630   1.110       .  S
C618        H631   1.105   1_545  S
C620        C621   1.408       .  A
C620        C625   1.506       .  S
C621        C622   1.403       .  A
C621        H626   1.084       .  S
C622        C623   1.417       .  A
C623        C624   1.403       .  A
C623        C627   1.509       .  S
C624        H628   1.084       .  S
C625        H635   1.111       .  S
C625        H636   1.110       .  S
C625        H637   1.109       .  S
C627        H638   1.109       .  S
C627        H639   1.111       .  S
C627        H640   1.111       .  S
C641        C642   1.400       .  A
C641        C646   1.398       .  A
C641        H651   1.085       .  S
C642        C647   1.473       .  S
C642        C643   1.409       .  A
C643        C644   1.402   1_554  A
C643        C648   1.506       .  S
C644        C645   1.405       .  A
C644        H649   1.084       .  S
C645        C646   1.415   1_556  A
C646        C650   1.509       .  S
C647        C652   1.409       .  A
C647        C656   1.402       .  A
C648        H664   1.110       .  S
C648        H665   1.110       .  S
C648        H666   1.111   1_554  S
C650        H661   1.111       .  S
C650        H662   1.110       .  S
C650        H663   1.108   1_554  S
C652        C653   1.399       .  A
C652        C657   1.507       .  S
C653        C654   1.402       .  A
C653        H658   1.083       .  S
C654        C655   1.414       .  A
C655        C656   1.401       .  A
C655        C659   1.509       .  S
C656        H660   1.085       .  S
C657        H667   1.111       .  S
C657        H668   1.110       .  S
C657        H669   1.110       .  S
C659        H670   1.111       .  S
C659        H671   1.107       .  S
C659        H672   1.110       .  S
C673        C674   1.398       .  A
C673        C678   1.401       .  A
C673        H683   1.085       .  S
C674        C679   1.468       .  S
C674        C675   1.409       .  A
C675        C676   1.396       .  A
C675        C680   1.508       .  S
C676        C677   1.401       .  A
C676        H681   1.080       .  S
C677        C678   1.420       .  A
C678        C682   1.510       .  S
C679        C684   1.407       .  A
C679        C688   1.400       .  A
C680        H696   1.110       .  S
C680        H697   1.110       .  S
C680        H698   1.111       .  S
C682        H693   1.110       .  S
C682        H694   1.111       .  S
C682        H695   1.105       .  S
C684        C685   1.400       .  A
C684        C689   1.506       .  S
C685        C686   1.403       .  A
C685        H690   1.084       .  S
C686        C687   1.414       .  A
C687        C688   1.397       .  A
C687        C691   1.510       .  S
C688        H692   1.085       .  S
C689        H699   1.111       .  S
C689        H700   1.110       .  S
C689        H701   1.110       .  S
C691        H702   1.110       .  S
C691        H703   1.107       .  S
C691        H704   1.111       .  S
C705        C706   1.400       .  A
C705        C710   1.401       .  A
C705        H715   1.085       .  S
C706        C711   1.476       .  S
C706        C707   1.410       .  A
C707        C708   1.402       .  A
C707        C712   1.506       .  S
C708        C709   1.402       .  A
C708        H713   1.084       .  S
C709        C710   1.417       .  A
C710        C714   1.509       .  S
C711        C716   1.408       .  A
C711        C720   1.401       .  A
C712        H728   1.110       .  S
C712        H729   1.110       .  S
C712        H730   1.111       .  S
C714        H725   1.111       .  S
C714        H726   1.110       .  S
C714        H727   1.107       .  S
C716        C717   1.398       .  A
C716        C721   1.508       .  S
C717        C718   1.405       .  A
C717        H722   1.084       .  S
C718        C719   1.418       .  A
C719        C720   1.405       .  A
C719        C723   1.508       .  S
C720        H724   1.084       .  S
C721        H731   1.111       .  S
C721        H732   1.110       .  S
C721        H733   1.110       .  S
C723        H734   1.111       .  S
C723        H735   1.107       .  S
C723        H736   1.110       .  S
C737        C738   1.398       .  A
C737        C742   1.404       .  A
C737        H747   1.084       .  S
C738        C743   1.480       .  S
C738        C739   1.407       .  A
C739        C740   1.403   1_455  A
C739        C744   1.507       .  S
C740        C741   1.412       .  A
C740        H745   1.083       .  S
C741        C742   1.425   1_655  A
C742        C746   1.508   1_455  S
C743        C748   1.409       .  A
C743        C752   1.400       .  A
C744        H760   1.110       .  S
C744        H761   1.110       .  S
C744        H762   1.111       .  S
C746        H757   1.109       .  S
C746        H758   1.111   1_655  S
C746        H759   1.110       .  S
C748        C749   1.403       .  A
C748        C753   1.506       .  S
C749        C750   1.407       .  A
C749        H754   1.084       .  S
C750        C751   1.419       .  A
C751        C752   1.403       .  A
C751        C755   1.510       .  S
C752        H756   1.085       .  S
C753        H763   1.111       .  S
C753        H764   1.110       .  S
C753        H765   1.110       .  S
C755        H766   1.109       .  S
C755        H767   1.110       .  S
C755        H768   1.111       .  S
C769        C770   1.400       .  A
C769        C774   1.401       .  A
C769        H779   1.085       .  S
C770        C775   1.479       .  S
C770        C771   1.410       .  A
C771        C772   1.403       .  A
C771        C776   1.506       .  S
C772        C773   1.404       .  A
C772        H777   1.084       .  S
C773        C774   1.417       .  A
C774        C778   1.508       .  S
C775        C780   1.408       .  A
C775        C784   1.401       .  A
C776        H792   1.110       .  S
C776        H793   1.110       .  S
C776        H794   1.111       .  S
C778        H789   1.110       .  S
C778        H790   1.111       .  S
C778        H791   1.108       .  S
C780        C781   1.399       .  A
C780        C785   1.509       .  S
C781        C782   1.407       .  A
C781        H786   1.084       .  S
C782        C783   1.421       .  A
C783        C784   1.407       .  A
C783        C787   1.508       .  S
C784        H788   1.084       .  S
C785        H795   1.111       .  S
C785        H796   1.110       .  S
C785        H797   1.110       .  S
C787        H798   1.111       .  S
C787        H799   1.105       .  S
C787        H800   1.110       .  S
C801        C802   1.399       .  A
C801        C806   1.405   1_554  A
C801        H811   1.084       .  S
C802        C807   1.477       .  S
C802        C803   1.410       .  A
C803        C804   1.400       .  A
C803        C808   1.508       .  S
C804        C805   1.404   1_554  A
C804        H809   1.084       .  S
C805        C806   1.420       .  A
C806        C810   1.508       .  S
C807        C812   1.409       .  A
C807        C816   1.401       .  A
C808        H824   1.110       .  S
C808        H825   1.110       .  S
C808        H826   1.111       .  S
C810        H821   1.110       .  S
C810        H822   1.111       .  S
C810        H823   1.111       .  S
C812        C813   1.403       .  A
C812        C817   1.506       .  S
C813        C814   1.403       .  A
C813        H818   1.084       .  S
C814        C815   1.415       .  A
C815        C816   1.402       .  A
C815        C819   1.509       .  S
C816        H820   1.084       .  S
C817        H827   1.111       .  S
C817        H828   1.110       .  S
C817        H829   1.110       .  S
C819        H830   1.111       .  S
C819        H831   1.110       .  S
C819        H832   1.111       .  S
C833        C834   1.400       .  A
C833        C838   1.402       .  A
C833        H843   1.085       .  S
C834        C839   1.476       .  S
C834        C835   1.409       .  A
C835        C836   1.402       .  A
C835        C840   1.506       .  S
C836        C837   1.404       .  A
C836        H841   1.084       .  S
C837        C838   1.417       .  A
C838        C842   1.508       .  S
C839        C844   1.408       .  A
C839        C848   1.399       .  A
C840        H856   1.110       .  S
C840        H857   1.110       .  S
C840        H858   1.111       .  S
C842        H853   1.111       .  S
C842        H854   1.111       .  S
C842        H855   1.108       .  S
C844        C845   1.404       .  A
C844        C849   1.506       .  S
C845        C846   1.407       .  A
C845        H850   1.084       .  S
C846        C847   1.417       .  A
C847        C848   1.400       .  A
C847        C851   1.509       .  S
C848        H852   1.084       .  S
C849        H859   1.111       .  S
C849        H860   1.110       .  S
C849        H861   1.110       .  S
C851        H862   1.111       .  S
C851        H863   1.109       .  S
C851        H864   1.111       .  S
C865        C866   1.402       .  A
C865        C870   1.403       .  A
C865        H875   1.084       .  S
C866        C871   1.478       .  S
C866        C867   1.409       .  A
C867        C868   1.401       .  A
C867        C872   1.506       .  S
C868        C869   1.404       .  A
C868        H873   1.084       .  S
C869        C870   1.414       .  A
C870        C874   1.508       .  S
C871        C876   1.409       .  A
C871        C880   1.401       .  A
C872        H888   1.110       .  S
C872        H889   1.110       .  S
C872        H890   1.111       .  S
C874        H885   1.111       .  S
C874        H886   1.109       .  S
C874        H887   1.111       .  S
C876        C877   1.401       .  A
C876        C881   1.507       .  S
C877        C878   1.405       .  A
C877        H882   1.084       .  S
C878        C879   1.417       .  A
C879        C880   1.404       .  A
C879        C883   1.508       .  S
C880        H884   1.084       .  S
C881        H891   1.111       .  S
C881        H892   1.110       .  S
C881        H893   1.110       .  S
C883        H894   1.111       .  S
C883        H895   1.107       .  S
C883        H896   1.110       .  S
C897        C898   1.398       .  A
C897        C902   1.406       .  A
C897        H907   1.085       .  S
C898        C903   1.481       .  S
C898        C899   1.407       .  A
C899        C900   1.403   1_455  A
C899        C904   1.507       .  S
C900        C901   1.412       .  A
C900        H905   1.084       .  S
C901        C902   1.426   1_655  A
C902        C906   1.509       .  S
C903        C908   1.409       .  A
C903        C912   1.402       .  A
C904        H920   1.110       .  S
C904        H921   1.110       .  S
C904        H922   1.111       .  S
C906        H917   1.110   1_455  S
C906        H918   1.111       .  S
C906        H919   1.110   1_455  S
C908        C909   1.402       .  A
C908        C913   1.507       .  S
C909        C910   1.405       .  A
C909        H914   1.084       .  S
C910        C911   1.418       .  A
C911        C912   1.405       .  A
C911        C915   1.509       .  S
C912        H916   1.084       .  S
C913        H923   1.111       .  S
C913        H924   1.110       .  S
C913        H925   1.110       .  S
C915        H926   1.110       .  S
C915        H927   1.106       .  S
C915        H928   1.111       .  S
C929        C930   1.400       .  A
C929        C934   1.397       .  A
C929        H939   1.085       .  S
C930        C935   1.468       .  S
C930        C931   1.407       .  A
C931        C932   1.400       .  A
C931        C936   1.505       .  S
C932        C933   1.402       .  A
C932        H937   1.084       .  S
C933        C934   1.413       .  A
C934        C938   1.509       .  S
C935        C940   1.410       .  A
C935        C944   1.400   1_556  A
C936        H952   1.110       .  S
C936        H953   1.110       .  S
C936        H954   1.111       .  S
C938        H949   1.111       .  S
C938        H950   1.110       .  S
C938        H951   1.108       .  S
C940        C941   1.396   1_556  A
C940        C945   1.507       .  S
C941        C942   1.399       .  A
C941        H946   1.085       .  S
C942        C943   1.414       .  A
C943        C944   1.401       .  A
C943        C947   1.508       .  S
C944        H948   1.085       .  S
C945        H955   1.111       .  S
C945        H956   1.110       .  S
C945        H957   1.110       .  S
C947        H958   1.110       .  S
C947        H959   1.108       .  S
C947        H960   1.110       .  S
C961        C962   1.398       .  A
C961        C966   1.403       .  A
C961        H971   1.084       .  S
C962        C967   1.471       .  S
C962        C963   1.409       .  A
C963        C964   1.397       .  A
C963        C968   1.508       .  S
C964        C965   1.404       .  A
C964        H969   1.083       .  S
C965        C966   1.418       .  A
C966        C970   1.508       .  S
C967        C972   1.410       .  A
C967        C976   1.398       .  A
C968        H984   1.110       .  S
C968        H985   1.109       .  S
C968        H986   1.111       .  S
C970        H981   1.111       .  S
C970        H982   1.111       .  S
C970        H983   1.110       .  S
C972        C973   1.400       .  A
C972        C977   1.507       .  S
C973        C974   1.403       .  A
C973        H978   1.084       .  S
C974        C975   1.417       .  A
C975        C976   1.399       .  A
C975        C979   1.508       .  S
C976        H980   1.085       .  S
C977        H987   1.111       .  S
C977        H988   1.110       .  S
C977        H989   1.110       .  S
C979        H990   1.111       .  S
C979        H991   1.108       .  S
C979        H992   1.110       .  S
C993        C994   1.401       .  A
C993        C998   1.403       .  A
C993       H1003   1.084       .  S
C994        C999   1.481       .  S
C994        C995   1.409       .  A
C995        C996   1.402       .  A
C995       C1000   1.507       .  S
C996        C997   1.408       .  A
C996       H1001   1.084       .  S
C997        C998   1.418       .  A
C998       C1002   1.508       .  S
C999       C1004   1.410       .  A
C999       C1008   1.404       .  A
C1000      H1016   1.110       .  S
C1000      H1017   1.110       .  S
C1000      H1018   1.111       .  S
C1002      H1013   1.110       .  S
C1002      H1014   1.111       .  S
C1002      H1015   1.109       .  S
C1004      C1005   1.400       .  A
C1004      C1009   1.508       .  S
C1005      C1006   1.403       .  A
C1005      H1010   1.084       .  S
C1006      C1007   1.416       .  A
C1007      C1008   1.405       .  A
C1007      C1011   1.508       .  S
C1008      H1012   1.084       .  S
C1009      H1019   1.111       .  S
C1009      H1020   1.109       .  S
C1009      H1021   1.111       .  S
C1011      H1022   1.110       .  S
C1011      H1023   1.107       .  S
C1011      H1024   1.110       .  S
C1025      C1026   1.400       .  A
C1025      C1030   1.399       .  A
C1025      H1035   1.085   1_554  S
C1026      C1031   1.476       .  S
C1026      C1027   1.409       .  A
C1027      C1028   1.405       .  A
C1027      C1032   1.506       .  S
C1028      C1029   1.406       .  A
C1028      H1033   1.084       .  S
C1029      C1030   1.416       .  A
C1030      C1034   1.510       .  S
C1031      C1036   1.412   1_545  A
C1031      C1040   1.402   1_554  A
C1032      H1048   1.110       .  S
C1032      H1049   1.109   1_545  S
C1032      H1050   1.111       .  S
C1034      H1045   1.111   1_554  S
C1034      H1046   1.110       .  S
C1034      H1047   1.108       .  S
C1036      C1037   1.397   1_554  A
C1036      C1041   1.510       .  S
C1037      C1038   1.404       .  A
C1037      H1042   1.085   1_556  S
C1038      C1039   1.416       .  A
C1039      C1040   1.407   1_565  A
C1039      C1043   1.506       .  S
C1040      H1044   1.084       .  S
C1041      H1051   1.111       .  S
C1041      H1052   1.110   1_565  S
C1041      H1053   1.108       .  S
C1043      H1054   1.110       .  S
C1043      H1055   1.110       .  S
C1043      H1056   1.111       .  S
C1057      C1058   1.403   1_545  A
C1057      C1062   1.404       .  A
C1057      H1067   1.084       .  S
C1058      C1063   1.478       .  S
C1058      C1059   1.410       .  A
C1059      C1060   1.400   1_565  A
C1059      C1064   1.508       .  S
C1060      C1061   1.403       .  A
C1060      H1065   1.084       .  S
C1061      C1062   1.414       .  A
C1062      C1066   1.507       .  S
C1063      C1068   1.408       .  A
C1063      C1072   1.401       .  A
C1064      H1080   1.109       .  S
C1064      H1081   1.111       .  S
C1064      H1082   1.111       .  S
C1066      H1077   1.110       .  S
C1066      H1078   1.110       .  S
C1066      H1079   1.107       .  S
C1068      C1069   1.401       .  A
C1068      C1073   1.507       .  S
C1069      C1070   1.407       .  A
C1069      H1074   1.084       .  S
C1070      C1071   1.416       .  A
C1071      C1072   1.403       .  A
C1071      C1075   1.508       .  S
C1072      H1076   1.084       .  S
C1073      H1083   1.111       .  S
C1073      H1084   1.110       .  S
C1073      H1085   1.110       .  S
C1075      H1086   1.110       .  S
C1075      H1087   1.111       .  S
C1075      H1088   1.111       .  S
C1089      C1090   1.401       .  A
C1089      C1094   1.406       .  A
C1089      H1099   1.084       .  S
C1090      C1095   1.476       .  S
C1090      C1091   1.409       .  A
C1091      C1092   1.398       .  A
C1091      C1096   1.508       .  S
C1092      C1093   1.405       .  A
C1092      H1097   1.084       .  S
C1093      C1094   1.419       .  A
C1094      C1098   1.508       .  S
C1095      C1100   1.409       .  A
C1095      C1104   1.401       .  A
C1096      H1112   1.110       .  S
C1096      H1113   1.110       .  S
C1096      H1114   1.111       .  S
C1098      H1109   1.110       .  S
C1098      H1110   1.111       .  S
C1098      H1111   1.106       .  S
C1100      C1101   1.402       .  A
C1100      C1105   1.507       .  S
C1101      C1102   1.404       .  A
C1101      H1106   1.084       .  S
C1102      C1103   1.416       .  A
C1103      C1104   1.402       .  A
C1103      C1107   1.508       .  S
C1104      H1108   1.084       .  S
C1105      H1115   1.111       .  S
C1105      H1116   1.110       .  S
C1105      H1117   1.110       .  S
C1107      H1118   1.111       .  S
C1107      H1119   1.108       .  S
C1107      H1120   1.110       .  S
C1121      C1122   1.400       .  A
C1121      C1126   1.404       .  A
C1121      H1131   1.084       .  S
C1122      C1127   1.472       .  S
C1122      C1123   1.409       .  A
C1123      C1124   1.397       .  A
C1123      C1128   1.510       .  S
C1124      C1125   1.406       .  A
C1124      H1129   1.084       .  S
C1125      C1126   1.420       .  A
C1126      C1130   1.508       .  S
C1127      C1132   1.408   1_556  A
C1127      C1136   1.397       .  A
C1128      H1144   1.110       .  S
C1128      H1145   1.108       .  S
C1128      H1146   1.111       .  S
C1130      H1141   1.110       .  S
C1130      H1142   1.111       .  S
C1130      H1143   1.111       .  S
C1132      C1133   1.403       .  A
C1132      C1137   1.507       .  S
C1133      C1134   1.408       .  A
C1133      H1138   1.084       .  S
C1134      C1135   1.419       .  A
C1135      C1136   1.397   1_554  A
C1135      C1139   1.509       .  S
C1136      H1140   1.084       .  S
C1137      H1147   1.111       .  S
C1137      H1148   1.110       .  S
C1137      H1149   1.108   1_554  S
C1139      H1150   1.111       .  S
C1139      H1151   1.111       .  S
C1139      H1152   1.109       .  S
C1153      C1154   1.397       .  A
C1153      C1158   1.399       .  A
C1153      H1163   1.085       .  S
C1154      C1159   1.474       .  S
C1154      C1155   1.406       .  A
C1155      C1156   1.402       .  A
C1155      C1160   1.506       .  S
C1156      C1157   1.411       .  A
C1156      H1161   1.083       .  S
C1157      C1158   1.426       .  A
C1158      C1162   1.510       .  S
C1159      C1164   1.409       .  A
C1159      C1168   1.398       .  A
C1160      H1176   1.109       .  S
C1160      H1177   1.110       .  S
C1160      H1178   1.111       .  S
C1162      H1173   1.111       .  S
C1162      H1174   1.107       .  S
C1162      H1175   1.110       .  S
C1164      C1165   1.400       .  A
C1164      C1169   1.507       .  S
C1165      C1166   1.407       .  A
C1165      H1170   1.083       .  S
C1166      C1167   1.421       .  A
C1167      C1168   1.399       .  A
C1167      C1171   1.510       .  S
C1168      H1172   1.085       .  S
C1169      H1179   1.111       .  S
C1169      H1180   1.109       .  S
C1169      H1181   1.110       .  S
C1171      H1182   1.111       .  S
C1171      H1183   1.109       .  S
C1171      H1184   1.111       .  S
C1185      C1186   1.403       .  A
C1185      C1190   1.404       .  A
C1185      H1195   1.084       .  S
C1186      C1191   1.478       .  S
C1186      C1187   1.408       .  A
C1187      C1188   1.402       .  A
C1187      C1192   1.506       .  S
C1188      C1189   1.405       .  A
C1188      H1193   1.084       .  S
C1189      C1190   1.414       .  A
C1190      C1194   1.508       .  S
C1191      C1196   1.409       .  A
C1191      C1200   1.399       .  A
C1192      H1208   1.110       .  S
C1192      H1209   1.110       .  S
C1192      H1210   1.111       .  S
C1194      H1205   1.111       .  S
C1194      H1206   1.110       .  S
C1194      H1207   1.108       .  S
C1196      C1197   1.404       .  A
C1196      C1201   1.506       .  S
C1197      C1198   1.407       .  A
C1197      H1202   1.084       .  S
C1198      C1199   1.418       .  A
C1199      C1200   1.403       .  A
C1199      C1203   1.508       .  S
C1200      H1204   1.084       .  S
C1201      H1211   1.111       .  S
C1201      H1212   1.110       .  S
C1201      H1213   1.110       .  S
C1203      H1214   1.111       .  S
C1203      H1215   1.111       .  S
C1203      H1216   1.110       .  S
C1217      C1218   1.400       .  A
C1217      C1222   1.408       .  A
C1217      H1227   1.084       .  S
C1218      C1223   1.482       .  S
C1218      C1219   1.406       .  A
C1219      C1220   1.401       .  A
C1219      C1224   1.507       .  S
C1220      C1221   1.411       .  A
C1220      H1225   1.083   1_545  S
C1221      C1222   1.425       .  A
C1222      C1226   1.508       .  S
C1223      C1228   1.409       .  A
C1223      C1232   1.400       .  A
C1224      H1240   1.110       .  S
C1224      H1241   1.110       .  S
C1224      H1242   1.111       .  S
C1226      H1237   1.109       .  S
C1226      H1238   1.111       .  S
C1226      H1239   1.110   1_545  S
C1228      C1229   1.404       .  A
C1228      C1233   1.507       .  S
C1229      C1230   1.407       .  A
C1229      H1234   1.084       .  S
C1230      C1231   1.421       .  A
C1231      C1232   1.404       .  A
C1231      C1235   1.509       .  S
C1232      H1236   1.085       .  S
C1233      H1243   1.111       .  S
C1233      H1244   1.110       .  S
C1233      H1245   1.110       .  S
C1235      H1246   1.111       .  S
C1235      H1247   1.105       .  S
C1235      H1248   1.110       .  S
C1249      C1250   1.400       .  A
C1249      C1254   1.400       .  A
C1249      H1259   1.085       .  S
C1250      C1255   1.472       .  S
C1250      C1251   1.408       .  A
C1251      C1252   1.400       .  A
C1251      C1256   1.506       .  S
C1252      C1253   1.404       .  A
C1252      H1257   1.084       .  S
C1253      C1254   1.416       .  A
C1254      C1258   1.510       .  S
C1255      C1260   1.406   1_556  A
C1255      C1264   1.399       .  A
C1256      H1272   1.110       .  S
C1256      H1273   1.110       .  S
C1256      H1274   1.111       .  S
C1258      H1269   1.110       .  S
C1258      H1270   1.111       .  S
C1258      H1271   1.105       .  S
C1260      C1261   1.401       .  A
C1260      C1265   1.506       .  S
C1261      C1262   1.408       .  A
C1261      H1266   1.084       .  S
C1262      C1263   1.418       .  A
C1263      C1264   1.400   1_554  A
C1263      C1267   1.510       .  S
C1264      H1268   1.085       .  S
C1265      H1275   1.111       .  S
C1265      H1276   1.110       .  S
C1265      H1277   1.110       .  S
C1267      H1278   1.111   1_554  S
C1267      H1279   1.109       .  S
C1267      H1280   1.111       .  S
C1281      C1282   1.400       .  A
C1281      C1286   1.400       .  A
C1281      H1291   1.084       .  S
C1282      C1287   1.470       .  S
C1282      C1283   1.406       .  A
C1283      C1284   1.399       .  A
C1283      C1288   1.506       .  S
C1284      C1285   1.405       .  A
C1284      H1289   1.084       .  S
C1285      C1286   1.416       .  A
C1286      C1290   1.508       .  S
C1287      C1292   1.408       .  A
C1287      C1296   1.396       .  A
C1288      H1304   1.110       .  S
C1288      H1305   1.110       .  S
C1288      H1306   1.111       .  S
C1290      H1301   1.111       .  S
C1290      H1302   1.111       .  S
C1290      H1303   1.110       .  S
C1292      C1293   1.398       .  A
C1292      C1297   1.508       .  S
C1293      C1294   1.407       .  A
C1293      H1298   1.083       .  S
C1294      C1295   1.423       .  A
C1295      C1296   1.402       .  A
C1295      C1299   1.509       .  S
C1296      H1300   1.084       .  S
C1297      H1307   1.111       .  S
C1297      H1308   1.110       .  S
C1297      H1309   1.110       .  S
C1299      H1310   1.110       .  S
C1299      H1311   1.110       .  S
C1299      H1312   1.111       .  S
C1313      C1314   1.402       .  A
C1313      C1318   1.405       .  A
C1313      H1323   1.085       .  S
C1314      C1319   1.483       .  S
C1314      C1315   1.410       .  A
C1315      C1316   1.403       .  A
C1315      C1320   1.506       .  S
C1316      C1317   1.405       .  A
C1316      H1321   1.084       .  S
C1317      C1318   1.418       .  A
C1318      C1322   1.509       .  S
C1319      C1324   1.408       .  A
C1319      C1328   1.399       .  A
C1320      H1336   1.110       .  S
C1320      H1337   1.110       .  S
C1320      H1338   1.111       .  S
C1322      H1333   1.111       .  S
C1322      H1334   1.110       .  S
C1322      H1335   1.107       .  S
C1324      C1325   1.404       .  A
C1324      C1329   1.506       .  S
C1325      C1326   1.410       .  A
C1325      H1330   1.084       .  S
C1326      C1327   1.423       .  A
C1327      C1328   1.406       .  A
C1327      C1331   1.508       .  S
C1328      H1332   1.084       .  S
C1329      H1339   1.111       .  S
C1329      H1340   1.110       .  S
C1329      H1341   1.110       .  S
C1331      H1342   1.111       .  S
C1331      H1343   1.111       .  S
C1331      H1344   1.110       .  S
C1345      C1346   1.401       .  A
C1345      C1350   1.404       .  A
C1345      H1355   1.084       .  S
C1346      C1351   1.477       .  S
C1346      C1347   1.411       .  A
C1347      C1348   1.398       .  A
C1347      C1352   1.508   1_554  S
C1348      C1349   1.403       .  A
C1348      H1353   1.084       .  S
C1349      C1350   1.418       .  A
C1350      C1354   1.508       .  S
C1351      C1356   1.412   1_455  A
C1351      C1360   1.401   1_454  A
C1352      H1368   1.110       .  S
C1352      H1369   1.110       .  S
C1352      H1370   1.111       .  S
C1354      H1365   1.111       .  S
C1354      H1366   1.111       .  S
C1354      H1367   1.110       .  S
C1356      C1357   1.396   1_554  A
C1356      C1361   1.510       .  S
C1357      C1358   1.403       .  A
C1357      H1362   1.085       .  S
C1358      C1359   1.419       .  A
C1359      C1360   1.406       .  A
C1359      C1363   1.507       .  S
C1360      H1364   1.084   1_655  S
C1361      H1371   1.111       .  S
C1361      H1372   1.109       .  S
C1361      H1373   1.111   1_655  S
C1363      H1374   1.111       .  S
C1363      H1375   1.110       .  S
C1363      H1376   1.111       .  S
C1377      C1378   1.400   1_455  A
C1377      C1382   1.403       .  A
C1377      H1387   1.085   1_455  S
C1378      C1383   1.480       .  S
C1378      C1379   1.410       .  A
C1379      C1380   1.403   1_655  A
C1379      C1384   1.506       .  S
C1380      C1381   1.405       .  A
C1380      H1385   1.084       .  S
C1381      C1382   1.419       .  A
C1382      C1386   1.508       .  S
C1383      C1388   1.412       .  A
C1383      C1392   1.399       .  A
C1384      H1400   1.110       .  S
C1384      H1401   1.110       .  S
C1384      H1402   1.111       .  S
C1386      H1397   1.110       .  S
C1386      H1398   1.111       .  S
C1386      H1399   1.107       .  S
C1388      C1389   1.405       .  A
C1388      C1393   1.506       .  S
C1389      C1390   1.403       .  A
C1389      H1394   1.084       .  S
C1390      C1391   1.417       .  A
C1391      C1392   1.401       .  A
C1391      C1395   1.510       .  S
C1392      H1396   1.085       .  S
C1393      H1403   1.111       .  S
C1393      H1404   1.110       .  S
C1393      H1405   1.110       .  S
C1395      H1406   1.110       .  S
C1395      H1407   1.106       .  S
C1395      H1408   1.111       .  S
C1409      C1410   1.402       .  A
C1409      C1414   1.404       .  A
C1409      H1419   1.084       .  S
C1410      C1415   1.485       .  S
C1410      C1411   1.411       .  A
C1411      C1412   1.406       .  A
C1411      C1416   1.506       .  S
C1412      C1413   1.405       .  A
C1412      H1417   1.084       .  S
C1413      C1414   1.416       .  A
C1414      C1418   1.508       .  S
C1415      C1420   1.410       .  A
C1415      C1424   1.403       .  A
C1416      H1432   1.110       .  S
C1416      H1433   1.110       .  S
C1416      H1434   1.111       .  S
C1418      H1429   1.110       .  S
C1418      H1430   1.111       .  S
C1418      H1431   1.108       .  S
C1420      C1421   1.400       .  A
C1420      C1425   1.508       .  S
C1421      C1422   1.406       .  A
C1421      H1426   1.084       .  S
C1422      C1423   1.420       .  A
C1423      C1424   1.409       .  A
C1423      C1427   1.508       .  S
C1424      H1428   1.084       .  S
C1425      H1435   1.111       .  S
C1425      H1436   1.110       .  S
C1425      H1437   1.110       .  S
C1427      H1438   1.111       .  S
C1427      H1439   1.106       .  S
C1427      H1440   1.110       .  S
C1441      C1442   1.395   1_554  A
C1441      C1446   1.399       .  A
C1441      H1451   1.085       .  S
C1442      C1447   1.470       .  S
C1442      C1443   1.408       .  A
C1443      C1444   1.400   1_556  A
C1443      C1448   1.507       .  S
C1444      C1445   1.406       .  A
C1444      H1449   1.084       .  S
C1445      C1446   1.423       .  A
C1446      C1450   1.510       .  S
C1447      C1452   1.406       .  A
C1447      C1456   1.400       .  A
C1448      H1464   1.110       .  S
C1448      H1465   1.110       .  S
C1448      H1466   1.111       .  S
C1450      H1461   1.110       .  S
C1450      H1462   1.111       .  S
C1450      H1463   1.101       .  S
C1452      C1453   1.398       .  A
C1452      C1457   1.507       .  S
C1453      C1454   1.405       .  A
C1453      H1458   1.084       .  S
C1454      C1455   1.415       .  A
C1455      C1456   1.402       .  A
C1455      C1459   1.508       .  S
C1456      H1460   1.084       .  S
C1457      H1467   1.111       .  S
C1457      H1468   1.110       .  S
C1457      H1469   1.110       .  S
C1459      H1470   1.111       .  S
C1459      H1471   1.110       .  S
C1459      H1472   1.111       .  S
C1473      C1474   1.398       .  A
C1473      C1478   1.396       .  A
C1473      H1483   1.085       .  S
C1474      C1479   1.469       .  S
C1474      C1475   1.410       .  A
C1475      C1476   1.400       .  A
C1475      C1480   1.507       .  S
C1476      C1477   1.403       .  A
C1476      H1481   1.084       .  S
C1477      C1478   1.416       .  A
C1478      C1482   1.508       .  S
C1479      C1484   1.409       .  A
C1479      C1488   1.396       .  A
C1480      H1496   1.110       .  S
C1480      H1497   1.110       .  S
C1480      H1498   1.111       .  S
C1482      H1493   1.110       .  S
C1482      H1494   1.111       .  S
C1482      H1495   1.108       .  S
C1484      C1485   1.398       .  A
C1484      C1489   1.508       .  S
C1485      C1486   1.406       .  A
C1485      H1490   1.084       .  S
C1486      C1487   1.422       .  A
C1487      C1488   1.399       .  A
C1487      C1491   1.509       .  S
C1488      H1492   1.084       .  S
C1489      H1499   1.111       .  S
C1489      H1500   1.110       .  S
C1489      H1501   1.110       .  S
C1491      H1502   1.110       .  S
C1491      H1503   1.111       .  S
C1491      H1504   1.111       .  S
C1505      C1506   1.400       .  A
C1505      C1510   1.403       .  A
C1505      H1515   1.084       .  S
C1506      C1511   1.483       .  S
C1506      C1507   1.413       .  A
C1507      C1508   1.407       .  A
C1507      C1512   1.507       .  S
C1508      C1509   1.404       .  A
C1508      H1513   1.084       .  S
C1509      C1510   1.415       .  A
C1510      C1514   1.506       .  S
C1511      C1516   1.412       .  A
C1511      C1520   1.400       .  A
C1512      H1528   1.110       .  S
C1512      H1529   1.108       .  S
C1512      H1530   1.111       .  S
C1514      H1525   1.111       .  S
C1514      H1526   1.111       .  S
C1514      H1527   1.109       .  S
C1516      C1517   1.407       .  A
C1516      C1521   1.507       .  S
C1517      C1518   1.405       .  A
C1517      H1522   1.084       .  S
C1518      C1519   1.417       .  A
C1519      C1520   1.402       .  A
C1519      C1523   1.510       .  S
C1520      H1524   1.085       .  S
C1521      H1531   1.111       .  S
C1521      H1532   1.110       .  S
C1521      H1533   1.108       .  S
C1523      H1534   1.110       .  S
C1523      H1535   1.106       .  S
C1523      H1536   1.111       .  S
C1537      C1538   1.402       .  A
C1537      C1542   1.403       .  A
C1537      H1547   1.084       .  S
C1538      C1543   1.481   1_565  S
C1538      C1539   1.410       .  A
C1539      C1540   1.405       .  A
C1539      C1544   1.506       .  S
C1540      C1541   1.405       .  A
C1540      H1545   1.084       .  S
C1541      C1542   1.415       .  A
C1542      C1546   1.509       .  S
C1543      C1548   1.408       .  A
C1543      C1552   1.399       .  A
C1544      H1560   1.110   1_565  S
C1544      H1561   1.110       .  S
C1544      H1562   1.111       .  S
C1546      H1557   1.110       .  S
C1546      H1558   1.111       .  S
C1546      H1559   1.108       .  S
C1548      C1549   1.402       .  A
C1548      C1553   1.507   1_545  S
C1549      C1550   1.410       .  A
C1549      H1554   1.083       .  S
C1550      C1551   1.424       .  A
C1551      C1552   1.407       .  A
C1551      C1555   1.509       .  S
C1552      H1556   1.084       .  S
C1553      H1563   1.111       .  S
C1553      H1564   1.110       .  S
C1553      H1565   1.110       .  S
C1555      H1566   1.111       .  S
C1555      H1567   1.110       .  S
C1555      H1568   1.111       .  S
C1569      C1570   1.400   1_556  A
C1569      C1574   1.396       .  A
C1569      H1579   1.085       .  S
C1570      C1575   1.481       .  S
C1570      C1571   1.414       .  A
C1571      C1572   1.408   1_554  A
C1571      C1576   1.506       .  S
C1572      C1573   1.403       .  A
C1572      H1577   1.084       .  S
C1573      C1574   1.415       .  A
C1574      C1578   1.508       .  S
C1575      C1580   1.415   1_545  A
C1575      C1584   1.400       .  A
C1576      H1592   1.109       .  S
C1576      H1593   1.110       .  S
C1576      H1594   1.111       .  S
C1578      H1589   1.111       .  S
C1578      H1590   1.110       .  S
C1578      H1591   1.105       .  S
C1580      C1581   1.408       .  A
C1580      C1585   1.506       .  S
C1581      C1582   1.402       .  A
C1581      H1586   1.084       .  S
C1582      C1583   1.413   1_565  A
C1583      C1584   1.397       .  A
C1583      C1587   1.510       .  S
C1584      H1588   1.084       .  S
C1585      H1595   1.111       .  S
C1585      H1596   1.109   1_554  S
C1585      H1597   1.110       .  S
C1587      H1598   1.109       .  S
C1587      H1599   1.109       .  S
C1587      H1600   1.111       .  S
C1601      C1602   1.399       .  A
C1601      C1606   1.399       .  A
C1601      H1611   1.085       .  S
C1602      C1607   1.471       .  S
C1602      C1603   1.407       .  A
C1603      C1604   1.400       .  A
C1603      C1608   1.506       .  S
C1604      C1605   1.405       .  A
C1604      H1609   1.085       .  S
C1605      C1606   1.417       .  A
C1606      C1610   1.510       .  S
C1607      C1612   1.405       .  A
C1607      C1616   1.401       .  A
C1608      H1624   1.110       .  S
C1608      H1625   1.110       .  S
C1608      H1626   1.111       .  S
C1610      H1621   1.110       .  S
C1610      H1622   1.111       .  S
C1610      H1623   1.104       .  S
C1612      C1613   1.399   1_554  A
C1612      C1617   1.507       .  S
C1613      C1614   1.408       .  A
C1613      H1618   1.084       .  S
C1614      C1615   1.417   1_556  A
C1615      C1616   1.402       .  A
C1615      C1619   1.508       .  S
C1616      H1620   1.084       .  S
C1617      H1627   1.111   1_554  S
C1617      H1628   1.110       .  S
C1617      H1629   1.110       .  S
C1619      H1630   1.111       .  S
C1619      H1631   1.109       .  S
C1619      H1632   1.111       .  S
C1633      C1634   1.399       .  A
C1633      C1638   1.398       .  A
C1633      H1643   1.084       .  S
C1634      C1639   1.465       .  S
C1634      C1635   1.405       .  A
C1635      C1636   1.396       .  A
C1635      C1640   1.507       .  S
C1636      C1637   1.407       .  A
C1636      H1641   1.084       .  S
C1637      C1638   1.416       .  A
C1638      C1642   1.509       .  S
C1639      C1644   1.406       .  A
C1639      C1648   1.396       .  A
C1640      H1656   1.110       .  S
C1640      H1657   1.110       .  S
C1640      H1658   1.111       .  S
C1642      H1653   1.111       .  S
C1642      H1654   1.111       .  S
C1642      H1655   1.110       .  S
C1644      C1645   1.395       .  A
C1644      C1649   1.509       .  S
C1645      C1646   1.407       .  A
C1645      H1650   1.082       .  S
C1646      C1647   1.421       .  A
C1647      C1648   1.400       .  A
C1647      C1651   1.508       .  S
C1648      H1652   1.084       .  S
C1649      H1659   1.111       .  S
C1649      H1660   1.110       .  S
C1649      H1661   1.110       .  S
C1651      H1662   1.111       .  S
C1651      H1663   1.110       .  S
C1651      H1664   1.110       .  S
C1665      C1666   1.403       .  A
C1665      C1670   1.405       .  A
C1665      H1675   1.084       .  S
C1666      C1671   1.483       .  S
C1666      C1667   1.410       .  A
C1667      C1668   1.404       .  A
C1667      C1672   1.506       .  S
C1668      C1669   1.404       .  A
C1668      H1673   1.084       .  S
C1669      C1670   1.416       .  A
C1670      C1674   1.509       .  S
C1671      C1676   1.410       .  A
C1671      C1680   1.401       .  A
C1672      H1688   1.110       .  S
C1672      H1689   1.110       .  S
C1672      H1690   1.111       .  S
C1674      H1685   1.111       .  S
C1674      H1686   1.111       .  S
C1674      H1687   1.108       .  S
C1676      C1677   1.404       .  A
C1676      C1681   1.507       .  S
C1677      C1678   1.406       .  A
C1677      H1682   1.084       .  S
C1678      C1679   1.420       .  A
C1679      C1680   1.406       .  A
C1679      C1683   1.509       .  S
C1680      H1684   1.085       .  S
C1681      H1691   1.111       .  S
C1681      H1692   1.110       .  S
C1681      H1693   1.110       .  S
C1683      H1694   1.111       .  S
C1683      H1695   1.105       .  S
C1683      H1696   1.110       .  S
C1697      C1698   1.401       .  A
C1697      C1702   1.403       .  A
C1697      H1707   1.084       .  S
C1698      C1703   1.479       .  S
C1698      C1699   1.412       .  A
C1699      C1700   1.402       .  A
C1699      C1704   1.507       .  S
C1700      C1701   1.400       .  A
C1700      H1705   1.083       .  S
C1701      C1702   1.415       .  A
C1702      C1706   1.508       .  S
C1703      C1708   1.409   1_655  A
C1703      C1712   1.402   1_655  A
C1704      H1720   1.110       .  S
C1704      H1721   1.110       .  S
C1704      H1722   1.111       .  S
C1706      H1717   1.111       .  S
C1706      H1718   1.110       .  S
C1706      H1719   1.108       .  S
C1708      C1709   1.399       .  A
C1708      C1713   1.507   1_455  S
C1709      C1710   1.404       .  A
C1709      H1714   1.084       .  S
C1710      C1711   1.418       .  A
C1711      C1712   1.405       .  A
C1711      C1715   1.508       .  S
C1712      H1716   1.084       .  S
C1713      H1723   1.111       .  S
C1713      H1724   1.110       .  S
C1713      H1725   1.110       .  S
C1715      H1726   1.111       .  S
C1715      H1727   1.108       .  S
C1715      H1728   1.110       .  S
C1729      C1730   1.400       .  A
C1729      C1734   1.398       .  A
C1729      H1739   1.085   1_556  S
C1730      C1735   1.483   1_456  S
C1730      C1731   1.413       .  A
C1731      C1732   1.408       .  A
C1731      C1736   1.506   1_455  S
C1732      C1733   1.405       .  A
C1732      H1737   1.084       .  S
C1733      C1734   1.410       .  A
C1734      C1738   1.501       .  S
C1735      C1740   1.412       .  A
C1735      C1744   1.400   1_554  A
C1736      H1752   1.109       .  S
C1736      H1753   1.110       .  S
C1736      H1754   1.111       .  S
C1738      H1749   1.111   1_556  S
C1738      H1750   1.109       .  S
C1738      H1751   1.110       .  S
C1740      C1741   1.406       .  A
C1740      C1745   1.506   1_655  S
C1741      C1742   1.407       .  A
C1741      H1746   1.084       .  S
C1742      C1743   1.420       .  A
C1743      C1744   1.401   1_554  A
C1743      C1747   1.510       .  S
C1744      H1748   1.084       .  S
C1745      H1755   1.111   1_455  S
C1745      H1756   1.109       .  S
C1745      H1757   1.110   1_455  S
C1747      H1758   1.109       .  S
C1747      H1759   1.110       .  S
C1747      H1760   1.111   1_554  S
C1761      C1762   1.401       .  A
C1761      C1766   1.402       .  A
C1761      H1771   1.084       .  S
C1762      C1767   1.479       .  S
C1762      C1763   1.410       .  A
C1763      C1764   1.404       .  A
C1763      C1768   1.506       .  S
C1764      C1765   1.405       .  A
C1764      H1769   1.084       .  S
C1765      C1766   1.416       .  A
C1766      C1770   1.508       .  S
C1767      C1772   1.409       .  A
C1767      C1776   1.403       .  A
C1768      H1784   1.110       .  S
C1768      H1785   1.110       .  S
C1768      H1786   1.111       .  S
C1770      H1781   1.110       .  S
C1770      H1782   1.111       .  S
C1770      H1783   1.108       .  S
C1772      C1773   1.398       .  A
C1772      C1777   1.508       .  S
C1773      C1774   1.404       .  A
C1773      H1778   1.085       .  S
C1774      C1775   1.417       .  A
C1775      C1776   1.408       .  A
C1775      C1779   1.507       .  S
C1776      H1780   1.084       .  S
C1777      H1787   1.111       .  S
C1777      H1788   1.110       .  S
C1777      H1789   1.110       .  S
C1779      H1790   1.111       .  S
C1779      H1791   1.107       .  S
C1779      H1792   1.110       .  S
C1793      C1794   1.400       .  A
C1793      C1798   1.401       .  A
C1793      H1803   1.085       .  S
C1794      C1799   1.476       .  S
C1794      C1795   1.409       .  A
C1795      C1796   1.403   1_554  A
C1795      C1800   1.506       .  S
C1796      C1797   1.405       .  A
C1796      H1801   1.084       .  S
C1797      C1798   1.413   1_556  A
C1798      C1802   1.501       .  S
C1799      C1804   1.411       .  A
C1799      C1808   1.401       .  A
C1800      H1816   1.110       .  S
C1800      H1817   1.109       .  S
C1800      H1818   1.111   1_554  S
C1802      H1813   1.109       .  S
C1802      H1814   1.111       .  S
C1802      H1815   1.107   1_554  S
C1804      C1805   1.401       .  A
C1804      C1809   1.507       .  S
C1805      C1806   1.401       .  A
C1805      H1810   1.085       .  S
C1806      C1807   1.414       .  A
C1807      C1808   1.402       .  A
C1807      C1811   1.508       .  S
C1808      H1812   1.084       .  S
C1809      H1819   1.111       .  S
C1809      H1820   1.110       .  S
C1809      H1821   1.109       .  S
C1811      H1822   1.110       .  S
C1811      H1823   1.109       .  S
C1811      H1824   1.110       .  S
C1825      C1826   1.399       .  A
C1825      C1830   1.406       .  A
C1825      H1835   1.084       .  S
C1826      C1831   1.473       .  S
C1826      C1827   1.408       .  A
C1827      C1828   1.398       .  A
C1827      C1832   1.509       .  S
C1828      C1829   1.408       .  A
C1828      H1833   1.083       .  S
C1829      C1830   1.422       .  A
C1830      C1834   1.508       .  S
C1831      C1836   1.409       .  A
C1831      C1840   1.399       .  A
C1832      H1848   1.110       .  S
C1832      H1849   1.109       .  S
C1832      H1850   1.111       .  S
C1834      H1845   1.110       .  S
C1834      H1846   1.111       .  S
C1834      H1847   1.109       .  S
C1836      C1837   1.404       .  A
C1836      C1841   1.506       .  S
C1837      C1838   1.406       .  A
C1837      H1842   1.084       .  S
C1838      C1839   1.415       .  A
C1839      C1840   1.398       .  A
C1839      C1843   1.509       .  S
C1840      H1844   1.084       .  S
C1841      H1851   1.111       .  S
C1841      H1852   1.110       .  S
C1841      H1853   1.109       .  S
C1843      H1854   1.111       .  S
C1843      H1855   1.111       .  S
C1843      H1856   1.109       .  S
C1857      C1858   1.399       .  A
C1857      C1862   1.403       .  A
C1857      H1867   1.084       .  S
C1858      C1863   1.477       .  S
C1858      C1859   1.407       .  A
C1859      C1860   1.402       .  A
C1859      C1864   1.506       .  S
C1860      C1861   1.408       .  A
C1860      H1865   1.083       .  S
C1861      C1862   1.422       .  A
C1862      C1866   1.508       .  S
C1863      C1868   1.411       .  A
C1863      C1872   1.399       .  A
C1864      H1880   1.110       .  S
C1864      H1881   1.110       .  S
C1864      H1882   1.111       .  S
C1866      H1877   1.110       .  S
C1866      H1878   1.111       .  S
C1866      H1879   1.110       .  S
C1868      C1869   1.402       .  A
C1868      C1873   1.507       .  S
C1869      C1870   1.403       .  A
C1869      H1874   1.085       .  S
C1870      C1871   1.419       .  A
C1871      C1872   1.402       .  A
C1871      C1875   1.509       .  S
C1872      H1876   1.085       .  S
C1873      H1883   1.111       .  S
C1873      H1884   1.110       .  S
C1873      H1885   1.110       .  S
C1875      H1886   1.111       .  S
C1875      H1887   1.106       .  S
C1875      H1888   1.110       .  S
