geometry optimzed in LAMMPS
_audit_creation_date              2020-12-01 
_audit_creation_method            'lammps2cif' 
_symmetry_space_group_name_H-M    'P1' 
_symmetry_Int_Tables_number       1 
_symmetry_cell_setting            triclinic 
loop_ 
_symmetry_equiv_pos_as_xyz 
  x,y,z 
_cell_length_a                    51.79329854 
_cell_length_b                    51.95366345748843 
_cell_length_c                    28.85024982382011 
_cell_angle_alpha                 89.91714989682723 
_cell_angle_beta                  90.0509339844263 
_cell_angle_gamma                 89.81190899600755 
loop_ 
_atom_site_label 
_atom_site_type_symbol 
_atom_site_fract_x 
_atom_site_fract_y 
_atom_site_fract_z 
_atom_site_charge 
Fe1        Fe  0.15424859  0.34624133  0.84708384     1.65800
Fe2        Fe  0.09495769  0.36492839  0.88061065     1.73200
Fe3        Fe  0.10177260  0.31084424  0.81312453     1.54400
O4          O  0.12430786  0.31788938  0.75445918    -0.81400
O5          O  0.07773175  0.33525986  0.91709905    -0.79700
O6          O  0.15450407  0.34609112  0.77687113    -0.83900
O7          O  0.16356880  0.30795125  0.85024316    -0.78800
O8          O  0.07266001  0.33242271  0.78288134    -0.80500
O9          O  0.12123025  0.36969025  0.93453623    -0.83300
C10         C  0.15223534  0.28649593  0.84813259     0.97500
C11         C  0.14246000  0.33370088  0.74592514     1.04900
O12         O  0.11684864  0.34042372  0.84693770    -1.12300
O13         O  0.10986932  0.39634382  0.84595334    -0.74700
O14         O  0.15153402  0.38616551  0.84367636    -0.78200
O15         O  0.12850006  0.28436522  0.83813512    -0.78900
C16         C  0.13324466  0.40224680  0.83869812     0.96400
O17         O  0.15622187  0.34652189  0.91772523    -0.76800
O18         O  0.06571414  0.36465381  0.83207969    -0.82000
C19         C  0.07029115  0.31283946  0.90545510     0.99000
C20         C  0.05985645  0.35183731  0.79631072     1.04900
O21         O  0.07711933  0.30174607  0.86796573    -0.77700
C22         C  0.14284688  0.35976590  0.94545229     1.03200
Fe23       Fe  0.33957996  0.16413048  0.84978701     1.65800
Fe24       Fe  0.36055513  0.10551408  0.88647063     1.73200
Fe25       Fe  0.30386997  0.11002322  0.82777022     1.54400
O26         O  0.27869441  0.14075096  0.83959334    -0.81400
O27         O  0.36381264  0.08035247  0.83235143    -0.79700
O28         O  0.30235252  0.17230000  0.86900221    -0.83900
O29         O  0.32977178  0.16342335  0.78001789    -0.78800
O30         O  0.29336771  0.09439993  0.89074974    -0.80500
O31         O  0.39228598  0.12442081  0.85920220    -0.83300
C32         C  0.32212169  0.14628797  0.75158452     0.97500
C33         C  0.28076907  0.16279197  0.85800071     1.04900
O34         O  0.33468569  0.12669992  0.85477256    -1.12300
O35         O  0.35972248  0.12867089  0.94345060    -0.74700
O36         O  0.34975857  0.16827931  0.91887462    -0.78200
O37         O  0.31331326  0.12450002  0.76376230    -0.78900
C38         C  0.35589499  0.15241822  0.95057548     0.96400
O39         O  0.37793668  0.16158572  0.83068408    -0.76800
O40         O  0.33232163  0.08384502  0.91878763    -0.82000
C41         C  0.34626485  0.06844591  0.81094051     0.99000
C42         C  0.30778306  0.08327592  0.92031059     1.04900
O43         O  0.32296031  0.07603183  0.81048226    -0.77700
C44         C  0.39599025  0.14563473  0.83856445     1.03200
Fe45       Fe  0.15940037  0.69027802  0.18818803     1.65800
Fe46       Fe  0.10092257  0.67072788  0.15452689     1.73200
Fe47       Fe  0.10627640  0.72468209  0.22173849     1.54400
O48         O  0.12961593  0.71833825  0.28001973    -0.81400
O49         O  0.08496156  0.70007496  0.11620227    -0.79700
O50         O  0.15972308  0.68956593  0.25852262    -0.83900
O51         O  0.16820709  0.72886192  0.18678212    -0.78800
O52         O  0.07789160  0.70259304  0.25281497    -0.80500
O53         O  0.12822514  0.66501622  0.10236477    -0.83300
C54         C  0.15610831  0.75004758  0.18689762     0.97500
C55         C  0.14786357  0.70252207  0.28910278     1.04900
O56         O  0.12202250  0.69542823  0.18853101    -1.12300
O57         O  0.11546214  0.64004414  0.19132152    -0.74700
O58         O  0.15713260  0.65006380  0.18903231    -0.78200
O59         O  0.13210870  0.75155824  0.19530076    -0.78900
C60         C  0.13904061  0.63393738  0.19544935     0.96400
O61         O  0.16085125  0.69134047  0.11767059    -0.76800
O62         O  0.07044654  0.67197539  0.20072457    -0.82000
C63         C  0.07611920  0.72196356  0.12795452     0.99000
C64         C  0.06444537  0.68419828  0.23717024     1.04900
O65         O  0.08108069  0.73275175  0.16671240    -0.77700
C66         C  0.14883686  0.67650830  0.09071429     1.03200
Fe67       Fe  0.33928138  0.87537056  0.19898933     1.65800
Fe68       Fe  0.35891945  0.93368879  0.16145887     1.73200
Fe69       Fe  0.30348932  0.92890398  0.22167856     1.54400
O70         O  0.27830570  0.89810216  0.20822507    -0.81400
O71         O  0.36518458  0.95612474  0.21887537    -0.79700
O72         O  0.30265587  0.86757003  0.17640159    -0.83900
O73         O  0.32796761  0.87478645  0.26831197    -0.78800
O74         O  0.29246740  0.94516312  0.15958696    -0.80500
O75         O  0.39105089  0.91188499  0.18010618    -0.83300
C76         C  0.32137868  0.89226334  0.29695652     0.97500
C77         C  0.28080936  0.87664793  0.18741237     1.04900
O78         O  0.33389933  0.91249018  0.19418556    -1.12300
O79         O  0.35330964  0.91243818  0.10234102    -0.74700
O80         O  0.35125626  0.87227395  0.13028321    -0.78200
O81         O  0.31322038  0.91427915  0.28493961    -0.78900
C82         C  0.35293190  0.88818859  0.09681656     0.96400
O83         O  0.37678308  0.87885795  0.22166996    -0.76800
O84         O  0.33118556  0.95949013  0.13852069    -0.82000
C85         C  0.34792507  0.96867204  0.24040936     0.99000
C86         C  0.30672221  0.96034610  0.13680083     1.04900
O87         O  0.32416243  0.96216075  0.23980570    -0.77700
C88         C  0.39497994  0.89273707  0.20652832     1.03200
Fe89       Fe  0.68491911  0.16287025  0.19334817     1.65800
Fe90       Fe  0.66557254  0.10410649  0.15557521     1.73200
Fe91       Fe  0.72109451  0.10935812  0.21519902     1.54400
O92         O  0.74531595  0.14114128  0.20564938    -0.81400
O93         O  0.66132367  0.07988758  0.21128822    -0.79700
O94         O  0.72162633  0.17139697  0.17153405    -0.83900
O95         O  0.69590811  0.16260526  0.26260617    -0.78800
O96         O  0.73281089  0.09476741  0.15213709    -0.80500
O97         O  0.63343088  0.12385061  0.17964326    -0.83300
C98         C  0.70149546  0.14460530  0.29092567     0.97500
C99         C  0.74315777  0.16270875  0.18512754     1.04900
O100        O  0.69049556  0.12562661  0.18778271    -1.12300
O101        O  0.66817157  0.12679477  0.09774261    -0.74700
O102        O  0.67314166  0.16673418  0.12526158    -0.78200
O103        O  0.70973443  0.12260666  0.27866209    -0.78900
C104        C  0.66964777  0.15097405  0.09229628     0.96400
O105        O  0.64729661  0.15929381  0.21490008    -0.76800
O106        O  0.69433833  0.08101649  0.12728954    -0.82000
C107        C  0.67916643  0.06727339  0.23093992     0.99000
C108        C  0.71888912  0.08107846  0.12563128     1.04900
O109        O  0.70255032  0.07461115  0.23017664    -0.77700
C110        C  0.62947118  0.14393117  0.20362039     1.03200
Fe111      Fe  0.86674801  0.34980315  0.19086328     1.65800
Fe112      Fe  0.92545311  0.36747907  0.15066560     1.73200
Fe113      Fe  0.91979869  0.31331155  0.21915996     1.54400
O114        O  0.90023026  0.32121563  0.28088155    -0.81400
O115        O  0.94153791  0.33738594  0.11405884    -0.79700
O116        O  0.86810729  0.34815325  0.26176880    -0.83900
O117        O  0.85689921  0.31168519  0.18500654    -0.78800
O118        O  0.95044259  0.33417554  0.24485720    -0.80500
O119        O  0.89852324  0.37171955  0.09830757    -0.83300
C120        C  0.86794340  0.28997518  0.18731733     0.97500
C121        C  0.88171318  0.33629460  0.29154599     1.04900
O122        O  0.90410576  0.34340081  0.18693448    -1.12300
O123        O  0.91153936  0.39975957  0.18415640    -0.74700
O124        O  0.87047911  0.38939521  0.19647921    -0.78200
O125        O  0.89154104  0.28744257  0.19817938    -0.78900
C126        C  0.88875016  0.40561741  0.19614415     0.96400
O127        O  0.86244217  0.35197685  0.12040825    -0.76800
O128        O  0.95548445  0.36751360  0.19723143    -0.82000
C129        C  0.94775691  0.31428119  0.12351147     0.99000
C130        C  0.96256057  0.35396435  0.23139916     1.04900
O131        O  0.94167417  0.30301397  0.16123753    -0.77700
C132        C  0.87594874  0.36346380  0.09043818     1.03200
Fe133      Fe  0.86705537  0.69443081  0.84617436     1.65800
Fe134      Fe  0.92559994  0.67294281  0.88030041     1.73200
Fe135      Fe  0.92101795  0.72896515  0.81690310     1.54400
O136        O  0.89930076  0.72366828  0.75654959    -0.81400
O137        O  0.94363384  0.70107227  0.91902657    -0.79700
O138        O  0.86686425  0.69712433  0.77531814    -0.83900
O139        O  0.85892900  0.73276068  0.85318259    -0.78800
O140        O  0.95050685  0.70774393  0.78723006    -0.80500
O141        O  0.89918180  0.66778572  0.93347385    -0.83300
C142        C  0.87080942  0.75392383  0.85214150     0.97500
C143        C  0.87997525  0.70969393  0.74584976     1.04900
O144        O  0.90470183  0.69893599  0.84765134    -1.12300
O145        O  0.90969572  0.64271024  0.84400783    -0.74700
O146        O  0.86852372  0.65470921  0.83953097    -0.78200
O147        O  0.89454126  0.75560835  0.84202973    -0.78900
C148        C  0.88615710  0.63782995  0.83597766     0.96400
O149        O  0.86467637  0.69178463  0.91690153    -0.76800
O150        O  0.95519065  0.67344459  0.83279762    -0.82000
C151        C  0.95129492  0.72378225  0.91004452     0.99000
C152        C  0.96254916  0.68761292  0.79970228     1.04900
O153        O  0.94481043  0.73626834  0.87372864    -0.77700
C154        C  0.87765142  0.67779286  0.94426573     1.03200
Fe155      Fe  0.68417852  0.87452854  0.84686634     1.65800
Fe156      Fe  0.66617018  0.93194118  0.88881648     1.73200
Fe157      Fe  0.71896769  0.92816847  0.81776486     1.54400
O158        O  0.74580706  0.90141665  0.84115556    -0.81400
O159        O  0.66655831  0.96370646  0.84515860    -0.79700
O160        O  0.72265141  0.86560023  0.84698096    -0.83900
O161        O  0.68314718  0.87673323  0.77636470    -0.78800
O162        O  0.72819876  0.95146995  0.87403913    -0.80500
O163        O  0.63422267  0.91896056  0.85324711    -0.83300
C164        C  0.69623156  0.88923401  0.74688067     0.97500
C165        C  0.74392642  0.87743794  0.84840182     1.04900
O166        O  0.68990167  0.91169805  0.85082400    -1.12300
O167        O  0.66167636  0.90337812  0.93906088    -0.74700
O168        O  0.68543510  0.86980373  0.91737325    -0.78200
O169        O  0.71212908  0.90695710  0.75755183    -0.78900
C170        C  0.67232563  0.88179008  0.94729621     0.96400
O171        O  0.64406130  0.87741126  0.84678314    -0.76800
O172        O  0.69662374  0.94629651  0.92637994    -0.82000
C173        C  0.67824537  0.97068778  0.80861356     0.99000
C174        C  0.71829438  0.95534190  0.91382283     1.04900
O175        O  0.69644719  0.95763421  0.79078920    -0.77700
C176        C  0.62797327  0.89587870  0.84457269     1.03200
Fe177      Fe  0.36967508  0.18737132  0.35517406     1.65800
Fe178      Fe  0.42884003  0.17072878  0.39099879     1.73200
Fe179      Fe  0.42084551  0.22484820  0.32422652     1.54400
O180        O  0.39841822  0.21805843  0.26561249    -0.81400
O181        O  0.44346429  0.20091109  0.42950245    -0.79700
O182        O  0.37081225  0.18657836  0.28484138    -0.83900
O183        O  0.35862759  0.22556784  0.35536506    -0.78800
O184        O  0.45063203  0.20434871  0.29370656    -0.80500
O185        O  0.40165422  0.16422899  0.44288780    -0.83300
C186        C  0.36942802  0.24738338  0.35636659     0.97500
C187        C  0.38179137  0.20095241  0.25535339     1.04900
O188        O  0.40664002  0.19452291  0.35661823    -1.12300
O189        O  0.41596431  0.13901106  0.35437879    -0.74700
O190        O  0.37389754  0.14731118  0.35488739    -0.78200
O191        O  0.39348808  0.25016473  0.35036216    -0.78900
C192        C  0.39273762  0.13191484  0.34911588     0.96400
O193        O  0.36719819  0.18817752  0.42572161    -0.76800
O194        O  0.45912388  0.17314292  0.34454913    -0.82000
C195        C  0.45068601  0.22338411  0.41771733     0.99000
C196        C  0.46461348  0.18601393  0.30855431     1.04900
O197        O  0.44486267  0.23393222  0.37925428    -0.77700
C198        C  0.38015447  0.17447590  0.45352884     1.03200
Fe199      Fe  0.18323290  0.37375048  0.34208280     1.65800
Fe200      Fe  0.16520338  0.43326768  0.37897264     1.73200
Fe201      Fe  0.22062313  0.42626196  0.31810219     1.54400
O202        O  0.24509799  0.39496407  0.33276713    -0.81400
O203        O  0.16076373  0.45698503  0.32278971    -0.79700
O204        O  0.21998747  0.36440134  0.36197433    -0.83900
O205        O  0.19300629  0.37274940  0.27260373    -0.78800
O206        O  0.23228941  0.44309307  0.37952271    -0.80500
O207        O  0.13251527  0.41406189  0.35683823    -0.83300
C208        C  0.20090618  0.38938435  0.24357289     0.97500
C209        C  0.24205406  0.37319061  0.35217307     1.04900
O210        O  0.18968734  0.41096205  0.34643879    -1.12300
O211        O  0.16802750  0.41096997  0.43773572    -0.74700
O212        O  0.17275659  0.37086735  0.41069925    -0.78200
O213        O  0.21037398  0.41098691  0.25500090    -0.78900
C214        C  0.16932627  0.38675749  0.44349126     0.96400
O215        O  0.14526537  0.37793066  0.32245451    -0.76800
O216        O  0.19396054  0.45680027  0.40485622    -0.82000
C217        C  0.17827522  0.46847163  0.30030524     0.99000
C218        C  0.21845720  0.45753024  0.40487906     1.04900
O219        O  0.20149428  0.46034954  0.29900975    -0.77700
C220        C  0.12788935  0.39388965  0.33371850     1.03200
Fe221      Fe  0.83797174  0.37848429  0.69460246     1.65800
Fe222      Fe  0.85794363  0.43753962  0.66173193     1.73200
Fe223      Fe  0.80161005  0.43164318  0.71872293     1.54400
O224        O  0.77722953  0.40047557  0.70485991    -0.81400
O225        O  0.86223122  0.45937150  0.72050698    -0.79700
O226        O  0.80169007  0.37118141  0.66979366    -0.83900
O227        O  0.82536632  0.37686643  0.76318306    -0.78800
O228        O  0.79103572  0.44863985  0.65669046    -0.80500
O229        O  0.88970308  0.41604831  0.68246839    -0.83300
C230        C  0.81883125  0.39395982  0.79262928     0.97500
C231        C  0.77988665  0.37940762  0.68300404     1.04900
O232        O  0.83249778  0.41571068  0.69152643    -1.12300
O233        O  0.85493026  0.41682053  0.60112570    -0.74700
O234        O  0.85147713  0.37628203  0.62669792    -0.78200
O235        O  0.81130401  0.41639574  0.78163525    -0.78900
C236        C  0.85494958  0.39263029  0.59440694     0.96400
O237        O  0.87521693  0.38126991  0.71898468    -0.76800
O238        O  0.83015953  0.46289148  0.63737450    -0.82000
C239        C  0.84439041  0.47202985  0.74022059     0.99000
C240        C  0.80568321  0.46407928  0.63503953     1.04900
O241        O  0.82081006  0.46536478  0.73794489    -0.77700
C242        C  0.89345469  0.39578597  0.70607134     1.03200
Fe243      Fe  0.65860849  0.19247218  0.68978049     1.65800
Fe244      Fe  0.59990720  0.17237068  0.65424536     1.73200
Fe245      Fe  0.60468530  0.22706254  0.72082725     1.54400
O246        O  0.62483284  0.21916979  0.78150689    -0.81400
O247        O  0.58314262  0.20192382  0.61622880    -0.79700
O248        O  0.65877542  0.19490271  0.76047009    -0.83900
O249        O  0.66698254  0.23087096  0.68236165    -0.78800
O250        O  0.57370092  0.20625256  0.74663973    -0.80500
O251        O  0.62662589  0.16708258  0.60174826    -0.83300
C252        C  0.65552234  0.25220167  0.68725912     0.97500
C253        C  0.64481301  0.20575420  0.79084881     1.04900
O254        O  0.62094517  0.19745322  0.68846616    -1.12300
O255        O  0.61507004  0.14143503  0.69047873    -0.74700
O256        O  0.65640477  0.15262002  0.69687677    -0.78200
O257        O  0.63224414  0.25384513  0.70043138    -0.78900
C258        C  0.63839891  0.13614268  0.70019810     0.96400
O259        O  0.66144363  0.19001529  0.61924721    -0.76800
O260        O  0.56949027  0.17244348  0.70030821    -0.82000
C261        C  0.57667720  0.22501958  0.62580808     0.99000
C262        C  0.56171667  0.18633206  0.73346949     1.04900
O263        O  0.58297461  0.23657147  0.66302000    -0.77700
C264        C  0.64831376  0.17666064  0.59140117     1.03200
Fe265      Fe  0.65772100  0.84518700  0.34309008     1.65800
Fe266      Fe  0.59920127  0.86729701  0.37785570     1.73200
Fe267      Fe  0.60309571  0.81095745  0.32253639     1.54400
O268        O  0.61746605  0.81997308  0.25843113    -0.81400
O269        O  0.57363514  0.84046400  0.40486054    -0.79700
O270        O  0.65802285  0.83203095  0.27472760    -0.83900
O271        O  0.66446284  0.80878333  0.36876942    -0.78800
O272        O  0.56920741  0.83081781  0.30608990    -0.80500
O273        O  0.62077918  0.86362485  0.43681661    -0.83300
C274        C  0.65506201  0.78752638  0.35574278     0.97500
C275        C  0.64015493  0.82630795  0.24613740     1.04900
O276        O  0.62024965  0.84121876  0.34781988    -1.12300
O277        O  0.62113547  0.89797654  0.35512992    -0.74700
O278        O  0.65523042  0.88222274  0.31765023    -0.78200
O279        O  0.63375396  0.78597928  0.33431230    -0.78900
C280        C  0.64091176  0.90085128  0.32986068     0.96400
O281        O  0.66116782  0.85897806  0.41040296    -0.76800
O282        O  0.57635445  0.87218825  0.32020474    -0.82000
C283        C  0.57312497  0.81612739  0.40924905     0.99000
C284        C  0.56276213  0.85438687  0.30300491     1.04900
O285        O  0.58781218  0.80123352  0.38635814    -0.77700
C286        C  0.64502568  0.86263743  0.44294638     1.03200
Fe287      Fe  0.84002658  0.66555757  0.34045553     1.65800
Fe288      Fe  0.86147186  0.60805848  0.38220637     1.73200
Fe289      Fe  0.80549756  0.61029927  0.31955056     1.54400
O290        O  0.77926206  0.63991398  0.33277975    -0.81400
O291        O  0.86590564  0.58108801  0.33056966    -0.79700
O292        O  0.80259263  0.67283282  0.35832198    -0.83900
O293        O  0.83066717  0.66410473  0.27071209    -0.78800
O294        O  0.79518226  0.59355192  0.38190913    -0.80500
O295        O  0.89284617  0.62695958  0.35407016    -0.83300
C296        C  0.82232436  0.64713241  0.24273188     0.97500
C297        C  0.78113563  0.66232428  0.34980555     1.04900
O298        O  0.83570664  0.62801286  0.34726932    -1.12300
O299        O  0.85960462  0.63263945  0.43781919    -0.74700
O300        O  0.84966187  0.67135718  0.40930752    -0.78200
O301        O  0.81371412  0.62539697  0.25540720    -0.78900
C302        C  0.85556597  0.65654171  0.44265791     0.96400
O303        O  0.87853494  0.66349760  0.32266699    -0.76800
O304        O  0.83351571  0.58690445  0.41563092    -0.82000
C305        C  0.84950277  0.56990209  0.30511427     0.99000
C306        C  0.80914646  0.58456604  0.41435535     1.04900
O307        O  0.82638781  0.57774670  0.30095842    -0.77700
C308        C  0.89655215  0.64782150  0.33228511     1.03200
Fe309      Fe  0.36714730  0.84823156  0.69434819     1.65800
Fe310      Fe  0.42557105  0.86879397  0.66055195     1.73200
Fe311      Fe  0.42057353  0.81238773  0.72255898     1.54400
O312        O  0.40032451  0.81952112  0.78410618    -0.81400
O313        O  0.44203020  0.84047021  0.62075690    -0.79700
O314        O  0.36785691  0.84630465  0.76481051    -0.83900
O315        O  0.35779985  0.81018786  0.68848180    -0.78800
O316        O  0.45144024  0.83261059  0.75026478    -0.80500
O317        O  0.39859618  0.87495663  0.60848252    -0.83300
C318        C  0.36887307  0.78853986  0.69003031     0.97500
C319        C  0.38146835  0.83437932  0.79449880     1.04900
O320        O  0.40460990  0.84288524  0.69263969    -1.12300
O321        O  0.41080612  0.89874369  0.69865072    -0.74700
O322        O  0.36937843  0.88790499  0.70028087    -0.78200
O323        O  0.39262298  0.78617283  0.70004728    -0.78900
C324        C  0.38734395  0.90410995  0.70608457     0.96400
O325        O  0.36468193  0.85017252  0.62379733    -0.76800
O326        O  0.45578841  0.86763740  0.70680697    -0.82000
C327        C  0.44833689  0.81704231  0.62713900     0.99000
C328        C  0.46332127  0.85299937  0.73912206     1.04900
O329        O  0.44245417  0.80414214  0.66336205    -0.77700
C330        C  0.37745597  0.86449941  0.59694525     1.03200
Fe331      Fe  0.18529980  0.66159792  0.69524200     1.65800
Fe332      Fe  0.16481660  0.60343812  0.65596982     1.73200
Fe333      Fe  0.22121910  0.60718189  0.71493063     1.54400
O334        O  0.24621178  0.63836465  0.70427275    -0.81400
O335        O  0.16112285  0.57794615  0.71007855    -0.79700
O336        O  0.22226884  0.66995801  0.67492507    -0.83900
O337        O  0.19580084  0.66036587  0.76464220    -0.78800
O338        O  0.23204746  0.59196522  0.65168271    -0.80500
O339        O  0.13299664  0.62279538  0.68306800    -0.83300
C340        C  0.20287198  0.64258149  0.79233632     0.97500
C341        C  0.24393414  0.66058055  0.68614545     1.04900
O342        O  0.19044675  0.62421493  0.68850719    -1.12300
O343        O  0.16654265  0.62712166  0.59901154    -0.74700
O344        O  0.17432615  0.66648726  0.62688731    -0.78200
O345        O  0.21125740  0.62076135  0.77923754    -0.78900
C346        C  0.16942395  0.65118110  0.59379703     0.96400
O347        O  0.14725971  0.65880457  0.71571033    -0.76800
O348        O  0.19313596  0.58108398  0.62431486    -0.82000
C349        C  0.17881258  0.56549187  0.73047697     0.99000
C350        C  0.21770582  0.58023363  0.62289257     1.04900
O351        O  0.20215106  0.57295700  0.73072546    -0.77700
C352        C  0.12925393  0.64328020  0.70610144     1.03200
C353        C  0.33569397  0.72930646  0.68594803     0.30000
C354        C  0.32931792  0.70396688  0.69934141    -0.36300
C355        C  0.30443265  0.69535503  0.68693268     0.16000
C356        C  0.28720333  0.71067466  0.66287737     0.21800
C357        C  0.29362815  0.73569830  0.64909004    -0.34400
C358        C  0.31825949  0.74425680  0.66164075     0.15900
O359        O  0.35679868  0.74228272  0.69741174    -0.26400
C360        C  0.35261668  0.76579626  0.68017423     0.05700
C361        C  0.32899574  0.76792250  0.65744751    -0.31300
O362        O  0.26437674  0.69991883  0.65806772    -0.23200
C363        C  0.26672707  0.67719201  0.67897585    -0.03100
C364        C  0.29133645  0.67319537  0.69750976    -0.17600
H365        H  0.34239161  0.69220205  0.71967594     0.20400
H366        H  0.27990870  0.74807634  0.63153775     0.18800
H367        H  0.32031990  0.78495914  0.64234224     0.18700
H368        H  0.29807270  0.65705631  0.71804816     0.14600
C369        C  0.72187149  0.69532504  0.35088411     0.30000
C370        C  0.69753000  0.70319418  0.33424343    -0.36300
C371        C  0.68817202  0.72678817  0.35149041     0.16000
C372        C  0.70187677  0.74152033  0.38276192     0.21800
C373        C  0.72582368  0.73348910  0.39981777    -0.34400
C374        C  0.73512361  0.71012230  0.38262682     0.15900
O375        O  0.73564731  0.67536885  0.33644139    -0.26400
C376        C  0.75786600  0.67765873  0.35946621     0.05700
C377        C  0.75845051  0.69885516  0.38865200    -0.31300
O378        O  0.69126802  0.76417831  0.39019204    -0.23200
C379        C  0.67028034  0.76405797  0.36376472    -0.03100
C380        C  0.66716029  0.74118234  0.33920560    -0.17600
H381        H  0.68724069  0.69239346  0.30808316     0.20400
H382        H  0.73708898  0.74533620  0.42301378     0.18800
H383        H  0.77443715  0.70583858  0.40922718     0.18700
H384        H  0.65275664  0.73674205  0.31324091     0.14600
C385        C  0.51633362  0.80376067  0.46847447     0.30000
C386        C  0.49014620  0.80803581  0.47755301    -0.36300
C387        C  0.48213549  0.80357393  0.52310903     0.16000
C388        C  0.49870021  0.79535662  0.55764478     0.21800
C389        C  0.52494292  0.79057160  0.54827264    -0.34400
C390        C  0.53302675  0.79509189  0.50246919     0.15900
O391        O  0.52835792  0.81045118  0.43025556    -0.26400
C392        C  0.55304237  0.80556716  0.43918128     0.05700
C393        C  0.55722433  0.79593780  0.48358516    -0.31300
O394        O  0.48793340  0.79642626  0.59912498    -0.23200
C395        C  0.46421260  0.80529889  0.59081125    -0.03100
C396        C  0.45958744  0.80994642  0.54412160    -0.17600
H397        H  0.47730827  0.81612360  0.45168938     0.20400
H398        H  0.53844714  0.78548700  0.57544151     0.18800
H399        H  0.57550324  0.79264291  0.50084374     0.18700
H400        H  0.44302551  0.81943449  0.52867006     0.14600
C401        C  0.70287214  0.29713934  0.65815708     0.30000
C402        C  0.72738382  0.30424011  0.64251388    -0.36300
C403        C  0.73577876  0.32875874  0.65530377     0.16000
C404        C  0.72113501  0.34544138  0.68166513     0.21800
C405        C  0.69616123  0.33851629  0.69653768    -0.34400
C406        C  0.68769584  0.31374195  0.68376306     0.15900
O407        O  0.69284751  0.27401392  0.65454211    -0.26400
C408        C  0.67071865  0.27555309  0.67763620     0.05700
C409        C  0.66626293  0.29995392  0.69625630    -0.31300
O410        O  0.73415814  0.36635668  0.69346806    -0.23200
C411        C  0.75729634  0.36288841  0.67406235    -0.03100
C412        C  0.75921145  0.33987466  0.64979704    -0.17600
H413        H  0.73967261  0.29097335  0.62375025     0.20400
H414        H  0.68470377  0.35100179  0.71847698     0.18800
H415        H  0.65062510  0.30598804  0.71867308     0.18700
H416        H  0.77604253  0.33172070  0.63303658     0.14600
C417        C  0.79588253  0.55512062  0.51949876     0.30000
C418        C  0.80242170  0.54870953  0.56510566    -0.36300
C419        C  0.79532239  0.52407615  0.57975180     0.16000
C420        C  0.78237132  0.50684716  0.55173763     0.21800
C421        C  0.77479551  0.51375786  0.50661062    -0.34400
C422        C  0.78210911  0.53843717  0.49168307     0.15900
O423        O  0.80543453  0.57463638  0.49618662    -0.26400
C424        C  0.79729343  0.57084237  0.45308143     0.05700
C425        C  0.78237601  0.54882229  0.44818413    -0.31300
O426        O  0.78214162  0.48332382  0.56934370    -0.23200
C427        C  0.79487291  0.48578114  0.60914554    -0.03100
C428        C  0.80332447  0.51067242  0.61740809    -0.17600
H429        H  0.81448579  0.56106589  0.58611168     0.20400
H430        H  0.76602615  0.50001501  0.48330020     0.18800
H431        H  0.77577237  0.54002991  0.41634502     0.18700
H432        H  0.81609226  0.51719615  0.64469588     0.14600
C433        C  0.23257109  0.51432915  0.46181991     0.30000
C434        C  0.22730268  0.54016633  0.47171788    -0.36300
C435        C  0.23183700  0.54797565  0.51733908     0.16000
C436        C  0.24137370  0.53161961  0.55106570     0.21800
C437        C  0.24747781  0.50583239  0.54069145    -0.34400
C438        C  0.24253136  0.49785301  0.49497565     0.15900
O439        O  0.22494009  0.50218972  0.42434405    -0.26400
C440        C  0.23040400  0.47765236  0.43287051     0.05700
C441        C  0.24150665  0.47369866  0.47622624    -0.31300
O442        O  0.23983344  0.54178809  0.59298067    -0.23200
C443        C  0.22936918  0.56491761  0.58569514    -0.03100
C444        C  0.22402817  0.56972153  0.53937066    -0.17600
H445        H  0.21799222  0.55267669  0.44670956     0.20400
H446        H  0.25342769  0.49237364  0.56734718     0.18800
H447        H  0.24525801  0.45552725  0.49342356     0.18700
H448        H  0.21337434  0.58577930  0.52479550     0.14600
C449        C  0.30125686  0.33949526  0.35960308     0.30000
C450        C  0.32707005  0.33328481  0.34856546    -0.36300
C451        C  0.33518247  0.30803454  0.35942984     0.16000
C452        C  0.31890688  0.29027381  0.37961687     0.21800
C453        C  0.29352834  0.29663753  0.39167325    -0.34400
C454        C  0.28551697  0.32167913  0.38091268     0.15900
O455        O  0.28857412  0.36082016  0.34816796    -0.26400
C456        C  0.26450387  0.35644971  0.36266943     0.05700
C457        C  0.26172843  0.33249981  0.38366465    -0.31300
O458        O  0.32922574  0.26714808  0.38242520    -0.23200
C459        C  0.35267241  0.26991208  0.36447513    -0.03100
C460        C  0.35761837  0.29503384  0.34985558    -0.17600
H461        H  0.33954571  0.34674337  0.33075763     0.20400
H462        H  0.28048380  0.28258699  0.40633704     0.18800
H463        H  0.24422296  0.32361101  0.39631697     0.18700
H464        H  0.37452853  0.30219045  0.33201529     0.14600
C465        C  0.48789361  0.24566590  0.50957402     0.30000
C466        C  0.49468892  0.24730470  0.55650787    -0.36300
C467        C  0.52122151  0.24731797  0.56617892     0.16000
C468        C  0.53979871  0.24544455  0.53197854     0.21800
C469        C  0.53301609  0.24562729  0.48497811    -0.34400
C470        C  0.50650976  0.24593070  0.47529101     0.15900
O471        O  0.46489407  0.23945829  0.49344681    -0.26400
C472        C  0.46874999  0.23669749  0.44817005     0.05700
C473        C  0.49411780  0.24087435  0.43486464    -0.31300
O474        O  0.56269368  0.23919989  0.54869582    -0.23200
C475        C  0.55888112  0.23803184  0.59419081    -0.03100
C476        C  0.53360380  0.24330246  0.60708171    -0.17600
H477        H  0.48038522  0.24591458  0.58373448     0.20400
H478        H  0.54728114  0.24295557  0.45798897     0.18800
H479        H  0.50275518  0.23701183  0.40141817     0.18700
H480        H  0.52494592  0.24072453  0.64090797     0.14600
C481        C  0.64081258  0.07264684  0.74258409     0.30000
C482        C  0.63116261  0.04996541  0.76260841    -0.36300
C483        C  0.64915555  0.03008480  0.77004339     0.16000
C484        C  0.67483889  0.03218811  0.75793853     0.21800
C485        C  0.68457665  0.05502790  0.73858452    -0.34400
C486        C  0.66664683  0.07504061  0.73176060     0.15900
O487        O  0.62740562  0.09362815  0.73266098    -0.26400
C488        C  0.64492455  0.10983960  0.71580907     0.05700
C489        C  0.66969712  0.09932704  0.71464395    -0.31300
O490        O  0.68825317  0.01123672  0.76811449    -0.23200
C491        C  0.67100303  0.99557399  0.78744338    -0.03100
C492        C  0.64640751  0.00639280  0.78984297    -0.17600
H493        H  0.61101776  0.04801822  0.77207207     0.20400
H494        H  0.70479199  0.05712872  0.72980365     0.18800
H495        H  0.68732215  0.10823132  0.70251827     0.18700
H496        H  0.62911639  0.99810829  0.80469252     0.14600
C497        C  0.64897798  0.85596747  0.05057906     0.30000
C498        C  0.63008149  0.84964959  0.08317804    -0.36300
C499        C  0.63910586  0.83962771  0.12514842     0.16000
C500        C  0.66502025  0.83641390  0.13496111     0.21800
C501        C  0.68397787  0.84186614  0.10157181    -0.34400
C502        C  0.67488172  0.85160214  0.05911081     0.15900
O503        O  0.64480149  0.86727846  0.01045272    -0.26400
C504        C  0.66823909  0.86978149  0.99251528     0.05700
C505        C  0.68775957  0.86012911  0.02085873    -0.31300
O506        O  0.66907717  0.83005443  0.17870602    -0.23200
C507        C  0.64539343  0.82868564  0.19647305    -0.03100
C508        C  0.62606384  0.83411931  0.16457310    -0.17600
H509        H  0.60975399  0.85327818  0.07694089     0.20400
H510        H  0.70439996  0.83971363  0.10885513     0.18800
H511        H  0.70839670  0.86032004  0.01485243     0.18700
H512        H  0.60551470  0.83600775  0.17071222     0.14600
C513        C  0.67764384  0.87507564  0.54648902     0.30000
C514        C  0.69721573  0.88450825  0.57555418    -0.36300
C515        C  0.69263523  0.88220797  0.62333800     0.16000
C516        C  0.67053621  0.87099868  0.64085734     0.21800
C517        C  0.65101955  0.86183961  0.61201279    -0.34400
C518        C  0.65537438  0.86454729  0.56464358     0.15900
O519        O  0.67737986  0.87554960  0.50077540    -0.26400
C520        C  0.65451078  0.86552828  0.49017840     0.05700
C521        C  0.64002275  0.85846881  0.52843681    -0.31300
O522        O  0.66967440  0.87136238  0.68620659    -0.23200
C523        C  0.69127867  0.88323276  0.69829715    -0.03100
C524        C  0.70647896  0.89045422  0.66073014    -0.17600
H525        H  0.71452384  0.89341420  0.56191566     0.20400
H526        H  0.63337038  0.85363408  0.62565199     0.18800
H527        H  0.62094307  0.85000330  0.52930794     0.18700
H528        H  0.72462053  0.90076943  0.66096050     0.14600
C529        C  0.56800147  0.86867603  0.81669402     0.30000
C530        C  0.55019756  0.84874473  0.80952510    -0.36300
C531        C  0.52578922  0.85617485  0.79300948     0.16000
C532        C  0.51949317  0.88145712  0.78334503     0.21800
C533        C  0.53715664  0.90144747  0.79126850    -0.34400
C534        C  0.56144167  0.89404469  0.80843750     0.15900
O535        O  0.59214540  0.86598864  0.83053145    -0.26400
C536        C  0.60112808  0.88996468  0.83165466     0.05700
C537        C  0.58282423  0.90824284  0.81847996    -0.31300
O538        O  0.49635461  0.88380462  0.76457699    -0.23200
C539        C  0.48747234  0.85977997  0.76309591    -0.03100
C540        C  0.50491276  0.84180751  0.78060233    -0.17600
H541        H  0.55519375  0.82874741  0.81561868     0.20400
H542        H  0.53247602  0.92134738  0.78363819     0.18800
H543        H  0.58515644  0.92888954  0.81566056     0.18700
H544        H  0.50309096  0.82104454  0.78131231     0.14600
C545        C  0.07006709  0.67159971  0.73739528     0.30000
C546        C  0.05234578  0.69181639  0.74409570    -0.36300
C547        C  0.02701804  0.68454429  0.75539853     0.16000
C548        C  0.01984772  0.65918961  0.76114501     0.21800
C549        C  0.03748175  0.63899416  0.75404844    -0.34400
C550        C  0.06261355  0.64623177  0.74151954     0.15900
O551        O  0.09459277  0.67393794  0.72566193    -0.26400
C552        C  0.10284948  0.64973423  0.72143615     0.05700
C553        C  0.08375748  0.63168570  0.73086094    -0.31300
O554        O  0.99574931  0.65681912  0.77521051    -0.23200
C555        C  0.98711328  0.68093761  0.77732803    -0.03100
C556        C  0.00568876  0.69902363  0.76515144    -0.17600
H557        H  0.05788222  0.71174091  0.74063306     0.20400
H558        H  0.03201548  0.61909274  0.75811299     0.18800
H559        H  0.08524520  0.61094075  0.72977736     0.18700
H560        H  0.00423154  0.71977331  0.76668203     0.14600
C561        C  0.80378040  0.84591811  0.85621740     0.30000
C562        C  0.82920306  0.83957048  0.84313531    -0.36300
C563        C  0.83793922  0.81491354  0.85625305     0.16000
C564        C  0.82263085  0.79791711  0.88064839     0.21800
C565        C  0.79766277  0.80444391  0.89460932    -0.34400
C566        C  0.78896545  0.82878942  0.88126976     0.15900
O567        O  0.79039881  0.86640263  0.84293515    -0.26400
C568        C  0.76684889  0.86199389  0.85967465     0.05700
C569        C  0.76501234  0.83904186  0.88406891    -0.31300
O570        O  0.83298468  0.77491207  0.88424415    -0.23200
C571        C  0.85546001  0.77698882  0.86250015    -0.03100
C572        C  0.85979828  0.80153578  0.84462393    -0.17600
H573        H  0.84075050  0.85228441  0.82188519     0.20400
H574        H  0.78524048  0.79079929  0.91206040     0.18800
H575        H  0.74796113  0.83036373  0.89905930     0.18700
H576        H  0.87556795  0.80785924  0.82285055     0.14600
C577        C  0.85001438  0.67866593  0.05419842     0.30000
C578        C  0.84068680  0.68978860  0.09504348    -0.36300
C579        C  0.83310165  0.67255521  0.12969401     0.16000
C580        C  0.83400530  0.64615421  0.12416019     0.21800
C581        C  0.84327954  0.63501196  0.08320274    -0.34400
C582        C  0.85160499  0.65226900  0.04906320     0.15900
O583        O  0.85904079  0.69119372  0.01805402    -0.26400
C584        C  0.86698564  0.67258296  0.98996485     0.05700
C585        C  0.86301325  0.64798075  0.00735687    -0.31300
O586        O  0.82835656  0.63372072  0.16258642    -0.23200
C587        C  0.82416928  0.65238999  0.19313835    -0.03100
C588        C  0.82662167  0.67693499  0.17457131    -0.17600
H589        H  0.84041161  0.71044108  0.10018560     0.20400
H590        H  0.84506941  0.61435796  0.07915933     0.18800
H591        H  0.86751035  0.62969564  0.99123158     0.18700
H592        H  0.82572057  0.69523905  0.19243688     0.14600
C593        C  0.85782156  0.68756798  0.63917016     0.30000
C594        C  0.84621865  0.66935138  0.61032038    -0.36300
C595        C  0.85201938  0.67133349  0.56319543     0.16000
C596        C  0.86759226  0.69041425  0.54519508     0.21800
C597        C  0.87930493  0.70871309  0.57421707    -0.34400
C598        C  0.87397336  0.70634511  0.62179246     0.15900
O599        O  0.85688534  0.68751530  0.68464120    -0.26400
C600        C  0.87282066  0.70627233  0.69702248     0.05700
C601        C  0.88394467  0.71886649  0.65937094    -0.31300
O602        O  0.87064693  0.68819914  0.49993217    -0.23200
C603        C  0.85718370  0.66721899  0.48939678    -0.03100
C604        C  0.84535209  0.65586985  0.52732441    -0.17600
H605        H  0.83430145  0.65400223  0.62398778     0.20400
H606        H  0.89236291  0.72318500  0.56084422     0.18800
H607        H  0.89836437  0.73391437  0.65973240     0.18700
H608        H  0.83360205  0.63865785  0.52821190     0.14600
C609        C  0.84717865  0.53394818  0.78769290     0.30000
C610        C  0.83758626  0.55834836  0.79979793    -0.36300
C611        C  0.85617929  0.57737771  0.80835421     0.16000
C612        C  0.88238623  0.57265225  0.80560049     0.21800
C613        C  0.89193681  0.54828151  0.79373755    -0.34400
C614        C  0.87339932  0.52933739  0.78493572     0.15900
O615        O  0.83338421  0.51386716  0.77479893    -0.26400
C616        C  0.85103391  0.49622675  0.76365703     0.05700
C617        C  0.87622617  0.50477453  0.76959434    -0.31300
O618        O  0.89635688  0.59322353  0.81452815    -0.23200
C619        C  0.87891974  0.61146513  0.82291205    -0.03100
C620        C  0.85358574  0.60272200  0.81952307    -0.17600
H621        H  0.81704164  0.56239091  0.80129927     0.20400
H622        H  0.91245040  0.54448542  0.79062473     0.18800
H623        H  0.89402212  0.49484082  0.76116034     0.18700
H624        H  0.83586529  0.61345842  0.82488250     0.14600
C625        C  0.01958175  0.38193187  0.27167278     0.30000
C626        C  0.03812803  0.40134952  0.27692336    -0.36300
C627        C  0.06200261  0.39351927  0.29521318     0.16000
C628        C  0.06742998  0.36822109  0.30645556     0.21800
C629        C  0.04873006  0.34894389  0.30208257    -0.34400
C630        C  0.02469398  0.35687094  0.28488400     0.15900
O631        O  0.99657447  0.38452647  0.25261026    -0.26400
C632        C  0.98667288  0.36094029  0.25467858     0.05700
C633        C  0.00320057  0.34301971  0.27478742    -0.31300
O634        O  0.09135063  0.36496440  0.32093403    -0.23200
C635        C  0.10121748  0.38854681  0.31986032    -0.03100
C636        C  0.08383620  0.40714015  0.30444153    -0.17600
H637        H  0.03434594  0.42109645  0.26679473     0.20400
H638        H  0.05275506  0.32904582  0.31093470     0.18800
H639        H  0.00043421  0.32245285  0.27842862     0.18700
H640        H  0.08705122  0.42756706  0.29980933     0.14600
C641        C  0.84699751  0.36212929  0.98150130     0.30000
C642        C  0.83688341  0.35104148  0.94115525    -0.36300
C643        C  0.83041106  0.36827195  0.90558903     0.16000
C644        C  0.83306051  0.39461088  0.91003530     0.21800
C645        C  0.84320680  0.40566735  0.95022707    -0.34400
C646        C  0.85037289  0.38842473  0.98513735     0.15900
O647        O  0.85538389  0.34966157  0.01834963    -0.26400
C648        C  0.86464998  0.36824803  0.04513742     0.05700
C649        C  0.86219221  0.39268616  0.02633516    -0.31300
O650        O  0.82762931  0.40699522  0.87155458    -0.23200
C651        C  0.82178838  0.38840694  0.84185669    -0.03100
C652        C  0.82309416  0.36388155  0.86099427    -0.17600
H653        H  0.83513463  0.33039152  0.93711697     0.20400
H654        H  0.84634430  0.42620828  0.95324493     0.18800
H655        H  0.86812835  0.41089004  0.04111477     0.18700
H656        H  0.82053517  0.34553916  0.84384259     0.14600
C657        C  0.86429059  0.36410372  0.39685551     0.30000
C658        C  0.85455385  0.38391792  0.42462715    -0.36300
C659        C  0.85811453  0.38097376  0.47232943     0.16000
C660        C  0.86999972  0.35971033  0.49172056     0.21800
C661        C  0.88022422  0.33998118  0.46371781    -0.34400
C662        C  0.87702007  0.34314731  0.41562034     0.15900
O663        O  0.86356942  0.36355644  0.35139676    -0.26400
C664        C  0.87626316  0.34218066  0.34033083     0.05700
C665        C  0.88519283  0.32859735  0.37888268    -0.31300
O666        O  0.87040164  0.36075811  0.53746886    -0.23200
C667        C  0.85900423  0.38316698  0.54706796    -0.03100
C668        C  0.85118137  0.39661112  0.50788867    -0.17600
H669        H  0.84502607  0.40064342  0.40993256     0.20400
H670        H  0.89009015  0.32343652  0.47836917     0.18800
H671        H  0.89647593  0.31101172  0.37964954     0.18700
H672        H  0.84132586  0.41500373  0.50602207     0.14600
C673        C  0.85328651  0.50966630  0.25162456     0.30000
C674        C  0.84335251  0.48638068  0.23509266    -0.36300
C675        C  0.86145046  0.46691441  0.22635644     0.16000
C676        C  0.88766512  0.47015496  0.23263198     0.21800
C677        C  0.89764138  0.49348593  0.24944503    -0.34400
C678        C  0.87943530  0.51290906  0.25884168     0.15900
O679        O  0.83957335  0.52975148  0.26480941    -0.26400
C680        C  0.85704960  0.54608573  0.28113536     0.05700
C681        C  0.88222901  0.53669541  0.27813364    -0.31300
O682        O  0.90098258  0.44916778  0.22243446    -0.23200
C683        C  0.88295644  0.43227326  0.21000699    -0.03100
C684        C  0.85806061  0.44227874  0.21196784    -0.17600
H685        H  0.82279748  0.48342210  0.23045647     0.20400
H686        H  0.91809057  0.49611936  0.25571854     0.18800
H687        H  0.89983564  0.54561608  0.29030825     0.18700
H688        H  0.84004499  0.43272589  0.20389430     0.14600
C689        C  0.73887307  0.00878745  0.97499566     0.30000
C690        C  0.73964763  0.03550696  0.98227108    -0.36300
C691        C  0.73853946  0.04362383  0.02861455     0.16000
C692        C  0.73713417  0.02653200  0.06522188     0.21800
C693        C  0.73667255  0.99989242  0.05799377    -0.34400
C694        C  0.73736116  0.99182083  0.01177201     0.15900
O695        O  0.73516650  0.99734054  0.93478468    -0.26400
C696        C  0.73113190  0.97283234  0.94600268     0.05700
C697        C  0.73235245  0.96828689  0.99338623    -0.31300
O698        O  0.73238625  0.03803914  0.10489347    -0.23200
C699        C  0.73103209  0.06284072  0.09394201    -0.03100
C700        C  0.73455207  0.06752247  0.04691133    -0.17600
H701        H  0.73901845  0.04903161  0.95371438     0.20400
H702        H  0.73379720  0.98649226  0.08626080     0.18800
H703        H  0.72730856  0.95083561  0.01178967     0.18700
H704        H  0.73179846  0.08546866  0.02838985     0.14600
C705        C  0.67727470  0.00440372  0.27447799     0.30000
C706        C  0.68724603  0.97984637  0.28416084    -0.36300
C707        C  0.66911005  0.96090362  0.29550276     0.16000
C708        C  0.64295449  0.96589940  0.29815586     0.21800
C709        C  0.63292831  0.99041695  0.28808616    -0.34400
C710        C  0.65106109  0.00926894  0.27596990     0.15900
O711        O  0.69067392  0.02453508  0.26068682    -0.26400
C712        C  0.67284692  0.04251194  0.25284860     0.05700
C713        C  0.64783697  0.03410522  0.26183102    -0.31300
O714        O  0.62957117  0.94543955  0.31034603    -0.23200
C715        C  0.64734266  0.92702717  0.31473629    -0.03100
C716        C  0.67226577  0.93549235  0.30572052    -0.17600
H717        H  0.70774197  0.97567507  0.28213947     0.20400
H718        H  0.61237615  0.99442098  0.28901368     0.18800
H719        H  0.62986130  0.04447367  0.25686053     0.18700
H720        H  0.69013270  0.92462852  0.30754711     0.14600
C721        C  0.83482649  0.23101135  0.18587816     0.30000
C722        C  0.82755670  0.20662859  0.20267822    -0.36300
C723        C  0.80338107  0.19743646  0.18784700     0.16000
C724        C  0.78758601  0.21126335  0.15829825     0.21800
C725        C  0.79500527  0.23533694  0.14093710    -0.34400
C726        C  0.81894358  0.24458548  0.15609990     0.15900
O727        O  0.85517347  0.24454981  0.19902317    -0.26400
C728        C  0.85208487  0.26708563  0.17753782     0.05700
C729        C  0.82996204  0.26805577  0.15021984    -0.31300
O730        O  0.76489151  0.20036103  0.15225940    -0.23200
C731        C  0.76605485  0.17906678  0.17788453    -0.03100
C732        C  0.78962289  0.17616734  0.20071506    -0.17600
H733        H  0.83932164  0.19614198  0.22740439     0.20400
H734        H  0.78236300  0.24669116  0.11905181     0.18800
H735        H  0.82230429  0.28430874  0.13108003     0.18700
H736        H  0.79516161  0.16142125  0.22539275     0.14600
C737        C  0.66547527  0.18028005  0.89572210     0.30000
C738        C  0.67540903  0.16079675  0.92399279    -0.36300
C739        C  0.67140466  0.16395220  0.97140933     0.16000
C740        C  0.65917638  0.18521705  0.99007278     0.21800
C741        C  0.64921863  0.20481015  0.96166804    -0.34400
C742        C  0.65257215  0.20128252  0.91389558     0.15900
O743        O  0.66524637  0.17999350  0.85031674    -0.26400
C744        C  0.65176164  0.20083703  0.83901474     0.05700
C745        C  0.64334793  0.21495096  0.87704863    -0.31300
O746        O  0.65713698  0.18375150  0.03548751    -0.23200
C747        C  0.66776493  0.16108395  0.04543713    -0.03100
C748        C  0.67691355  0.14791160  0.00707234    -0.17600
H749        H  0.68470141  0.14382593  0.90982365     0.20400
H750        H  0.63877251  0.22113554  0.97571696     0.18800
H751        H  0.63140235  0.23210153  0.87745183     0.18700
H752        H  0.68622531  0.12922151  0.00578655     0.14600
C753        C  0.66898497  0.15232863  0.48541686     0.30000
C754        C  0.67329048  0.13355789  0.45155843    -0.36300
C755        C  0.68371697  0.14244709  0.40984102     0.16000
C756        C  0.68890032  0.16811468  0.40150268     0.21800
C757        C  0.68517084  0.18678778  0.43576690    -0.34400
C758        C  0.67535667  0.17780912  0.47792587     0.15900
O759        O  0.65848628  0.14853321  0.52632978    -0.26400
C760        C  0.65868446  0.17177243  0.54543391     0.05700
C761        C  0.66916340  0.19069759  0.51728473    -0.31300
O762        O  0.69656511  0.17236429  0.35870896    -0.23200
C763        C  0.69692363  0.14902540  0.34001350    -0.03100
C764        C  0.68927067  0.12966178  0.37017009    -0.17600
H765        H  0.66847575  0.11350020  0.45708680     0.20400
H766        H  0.68922631  0.20695968  0.42972419     0.18800
H767        H  0.67108437  0.21107599  0.52431362     0.18700
H768        H  0.68672081  0.10936441  0.36295493     0.14600
C769        C  0.57010778  0.17140544  0.23459781     0.30000
C770        C  0.55221736  0.19134340  0.24213944    -0.36300
C771        C  0.52752847  0.18374790  0.25673241     0.16000
C772        C  0.52115452  0.15832386  0.26451616     0.21800
C773        C  0.53887431  0.13838987  0.25609367    -0.34400
C774        C  0.56333596  0.14593527  0.24052388     0.15900
O775        O  0.59435407  0.17409234  0.22156222    -0.26400
C776        C  0.60303540  0.15001981  0.21829193     0.05700
C777        C  0.58456758  0.13168665  0.22944856    -0.31300
O778        O  0.49781742  0.15569232  0.28207032    -0.23200
C779        C  0.48880702  0.17966275  0.28448529    -0.03100
C780        C  0.50637826  0.19793820  0.26886069    -0.17600
H781        H  0.55728940  0.21139207  0.23748184     0.20400
H782        H  0.53403888  0.11838095  0.26197100     0.18800
H783        H  0.58665270  0.11093855  0.22997969     0.18700
H784        H  0.50449180  0.21870121  0.26950355     0.14600
C785        C  0.36582233  0.07154548  0.32292104     0.30000
C786        C  0.34588372  0.05355255  0.31742588    -0.36300
C787        C  0.35288574  0.02984340  0.29783141     0.16000
C788        C  0.37781078  0.02417919  0.28430633     0.21800
C789        C  0.39786918  0.04206520  0.29040108    -0.34400
C790        C  0.39087423  0.06579621  0.31025282     0.15900
O791        O  0.36327153  0.09530122  0.33847406    -0.26400
C792        C  0.38702670  0.10497304  0.33619979     0.05700
C793        C  0.40504240  0.08739165  0.31913698    -0.31300
O794        O  0.37960994  0.00149710  0.26385878    -0.23200
C795        C  0.35554485  0.99246163  0.26460057    -0.03100
C796        C  0.33816570  0.00926003  0.28556022    -0.17600
H797        H  0.32610483  0.05797924  0.32675318     0.20400
H798        H  0.41746625  0.03800228  0.27936094     0.18800
H799        H  0.42543839  0.09036977  0.31289573     0.18700
H800        H  0.31747277  0.00714872  0.28913680     0.14600
C801        C  0.36513097  0.85476587  0.99401578     0.30000
C802        C  0.37629235  0.83571410  0.96586693    -0.36300
C803        C  0.37392660  0.83951274  0.91790985     0.16000
C804        C  0.36094085  0.86035072  0.89926573     0.21800
C805        C  0.34988543  0.87938059  0.92724495    -0.34400
C806        C  0.35275253  0.87586933  0.97498020     0.15900
O807        O  0.36620981  0.85587157  0.03962114    -0.26400
C808        C  0.35475966  0.87813720  0.04960293     0.05700
C809        C  0.34599093  0.89138865  0.01080442    -0.31300
O810        O  0.36151346  0.86056624  0.85383847    -0.23200
C811        C  0.37522546  0.83978151  0.84293324    -0.03100
C812        C  0.38361674  0.82588445  0.88135293    -0.17600
H813        H  0.38672004  0.81946853  0.98034512     0.20400
H814        H  0.34036137  0.89615833  0.91271500     0.18800
H815        H  0.33645227  0.90995658  0.00927811     0.18700
H816        H  0.39541864  0.80864309  0.88219869     0.14600
C817        C  0.34949438  0.86323364  0.48737015     0.30000
C818        C  0.33843436  0.85196913  0.44807952    -0.36300
C819        C  0.33322094  0.86869438  0.41120465     0.16000
C820        C  0.33794101  0.89482235  0.41338459     0.21800
C821        C  0.34924806  0.90605940  0.45248834    -0.34400
C822        C  0.35512687  0.88920043  0.48882743     0.15900
O823        O  0.35647209  0.85109544  0.52539859    -0.26400
C824        C  0.36716998  0.86943530  0.55091286     0.05700
C825        C  0.36706840  0.89349673  0.52998950    -0.31300
O826        O  0.33279234  0.90660912  0.37414685    -0.23200
C827        C  0.32509995  0.88776145  0.34633790    -0.03100
C828        C  0.32495655  0.86373108  0.36738877    -0.17600
H829        H  0.33483938  0.83147320  0.44593517     0.20400
H830        H  0.35390481  0.92636269  0.45385286     0.18800
H831        H  0.37437568  0.91149796  0.54350770     0.18700
H832        H  0.32060095  0.84524418  0.35201347     0.14600
C833        C  0.46130596  0.89000826  0.23196539     0.30000
C834        C  0.48655103  0.89943090  0.23737614    -0.36300
C835        C  0.50486105  0.88184485  0.25462498     0.16000
C836        C  0.49877607  0.85663141  0.26498525     0.21800
C837        C  0.47356291  0.84732016  0.26004989    -0.34400
C838        C  0.45521701  0.86497589  0.24362062     0.15900
O839        O  0.44104014  0.90311036  0.21701905    -0.26400
C840        C  0.42170319  0.88632403  0.21979854     0.05700
C841        C  0.42941119  0.86233281  0.23628095    -0.31300
O842        O  0.51861275  0.84360316  0.28141321    -0.23200
C843        C  0.53767817  0.86066256  0.28210848    -0.03100
C844        C  0.53026390  0.88487274  0.26603541    -0.17600
H845        H  0.49147864  0.91918926  0.22935728     0.20400
H846        H  0.46850613  0.82772017  0.26915991     0.18800
H847        H  0.41769070  0.84535910  0.24174932     0.18700
H848        H  0.54172802  0.90223295  0.26413420     0.14600
C849        C  0.98884092  0.74189486  0.00492062     0.30000
C850        C  0.99466489  0.74353559  0.05240219    -0.36300
C851        C  0.02097197  0.74258749  0.06416277     0.16000
C852        C  0.04017140  0.73982557  0.03135816     0.21800
C853        C  0.03442297  0.73923465  0.98386014    -0.34400
C854        C  0.00817934  0.74052153  0.97210039     0.15900
O855        O  0.96571876  0.73802892  0.98692208    -0.26400
C856        C  0.97024554  0.73502243  0.94184904     0.05700
C857        C  0.99629363  0.73648448  0.93064944    -0.31300
O858        O  0.06275842  0.73429317  0.04998274    -0.23200
C859        C  0.05824488  0.73428121  0.09534210    -0.03100
C860        C  0.03261215  0.73954194  0.10627531    -0.17600
H861        H  0.97968249  0.74354258  0.07852562     0.20400
H862        H  0.04923871  0.73596456  0.95806912     0.18800
H863        H  0.00531499  0.73211084  0.89773602     0.18700
H864        H  0.02334849  0.73793303  0.13976456     0.14600
C865        C  0.00271383  0.68222201  0.28671798     0.30000
C866        C  0.97913619  0.69258918  0.30220328    -0.36300
C867        C  0.95861806  0.67512684  0.30672601     0.16000
C868        C  0.96130563  0.64916458  0.29766480     0.21800
C869        C  0.98471760  0.63889247  0.28170167    -0.34400
C870        C  0.00505190  0.65638435  0.27638680     0.15900
O871        O  0.02397200  0.69521018  0.27723712    -0.26400
C872        C  0.04001530  0.67747835  0.26024318     0.05700
C873        C  0.02921130  0.65301659  0.25887867    -0.31300
O874        O  0.93987870  0.63618752  0.30517654    -0.23200
C875        C  0.92304117  0.65410465  0.31830318    -0.03100
C876        C  0.93354539  0.67872703  0.31972951    -0.17600
H877        H  0.97680447  0.71294508  0.30931224     0.20400
H878        H  0.98681917  0.61866926  0.27328953     0.18800
H879        H  0.03755014  0.63553539  0.24486769     0.18700
H880        H  0.92421998  0.69651268  0.33005309     0.14600
C881        C  0.20350575  0.79506791  0.15785335     0.30000
C882        C  0.22804894  0.80235532  0.14249409    -0.36300
C883        C  0.23634170  0.82687415  0.15575547     0.16000
C884        C  0.22158791  0.84336161  0.18232502     0.21800
C885        C  0.19653637  0.83631717  0.19657728    -0.34400
C886        C  0.18816367  0.81159414  0.18329387     0.15900
O887        O  0.19360148  0.77185322  0.15428460    -0.26400
C888        C  0.17132914  0.77335957  0.17702621     0.05700
C889        C  0.16672085  0.79774824  0.19545695    -0.31300
O890        O  0.23466116  0.86404190  0.19540562    -0.23200
C891        C  0.25798777  0.86063390  0.17669037    -0.03100
C892        C  0.25988348  0.83795042  0.15133554    -0.17600
H893        H  0.24049182  0.78917395  0.12384445     0.20400
H894        H  0.18498449  0.84862080  0.21869635     0.18800
H895        H  0.15100441  0.80371175  0.21775701     0.18700
H896        H  0.27682665  0.82984395  0.13486003     0.14600
C897        C  0.17295327  0.65152998  0.98762484     0.30000
C898        C  0.17841825  0.63240432  0.95498358    -0.36300
C899        C  0.18877175  0.64099528  0.91301090     0.16000
C900        C  0.19321347  0.66668688  0.90359597     0.21800
C901        C  0.18873058  0.68572964  0.93699510    -0.34400
C902        C  0.17852557  0.67710161  0.97914497     0.15900
O903        O  0.16135995  0.64802197  0.02764744    -0.26400
C904        C  0.15985837  0.67156802  0.04521957     0.05700
C905        C  0.17049347  0.69042844  0.01700672    -0.31300
O906        O  0.19975876  0.67066701  0.86009741    -0.23200
C907        C  0.20005948  0.64717729  0.84192369    -0.03100
C908        C  0.19364697  0.62794400  0.87327224    -0.17600
H909        H  0.17385223  0.61234661  0.96111642     0.20400
H910        H  0.19184098  0.70596443  0.92985180     0.18800
H911        H  0.17136569  0.71099026  0.02297373     0.18700
H912        H  0.19089019  0.60761646  0.86664127     0.14600
C913        C  0.15591575  0.69872249  0.40930093     0.30000
C914        C  0.15203267  0.70500839  0.45608829    -0.36300
C915        C  0.16016414  0.68641175  0.48834791     0.16000
C916        C  0.17096050  0.66317165  0.47527124     0.21800
C917        C  0.17558671  0.65729147  0.42886334    -0.34400
C918        C  0.16785183  0.67593993  0.39688278     0.15900
O919        O  0.14776933  0.71195080  0.37296598    -0.26400
C920        C  0.15509860  0.69750524  0.33723967     0.05700
C921        C  0.16792277  0.67512146  0.35015501    -0.31300
O922        O  0.17536475  0.64779134  0.51055572    -0.23200
C923        C  0.16776145  0.66146524  0.54687445    -0.03100
C924        C  0.15835881  0.68575674  0.53541656    -0.17600
H925        H  0.14259251  0.72270622  0.46653294     0.20400
H926        H  0.18390573  0.63905433  0.41831057     0.18800
H927        H  0.17470343  0.65958963  0.32824025     0.18700
H928        H  0.15058984  0.70035378  0.55829128     0.14600
C929        C  0.17557379  0.52938352  0.24763023     0.30000
C930        C  0.18542470  0.55252922  0.22980317    -0.36300
C931        C  0.16730228  0.57219719  0.22167435     0.16000
C932        C  0.14124321  0.56921864  0.23010119     0.21800
C933        C  0.13139594  0.54608010  0.24770280    -0.34400
C934        C  0.14951397  0.52651943  0.25614103     0.15900
O935        O  0.18915490  0.50897618  0.26028869    -0.26400
C936        C  0.17153114  0.49283591  0.27702241     0.05700
C937        C  0.14656235  0.50278458  0.27527227    -0.31300
O938        O  0.12786924  0.59033949  0.22151059    -0.23200
C939        C  0.14557858  0.60718088  0.20769921    -0.03100
C940        C  0.17045067  0.59693013  0.20695717    -0.17600
H941        H  0.20589293  0.55524625  0.22380628     0.20400
H942        H  0.11105011  0.54369749  0.25535370     0.18800
H943        H  0.12891693  0.49415963  0.28801727     0.18700
H944        H  0.18827285  0.60644859  0.19756877     0.14600
C945        C  0.38437032  0.96846269  0.74141748     0.30000
C946        C  0.39402203  0.99257374  0.75439899    -0.36300
C947        C  0.37549119  0.01136981  0.76504136     0.16000
C948        C  0.34925746  0.00682659  0.76285299     0.21800
C949        C  0.33962074  0.98271103  0.74992075    -0.34400
C950        C  0.35814004  0.96387810  0.73956040     0.15900
O951        O  0.39818734  0.94805113  0.73023503    -0.26400
C952        C  0.38055570  0.93017828  0.72126174     0.05700
C953        C  0.35533116  0.93890783  0.72666360    -0.31300
O954        O  0.33543588  0.02675096  0.77654681    -0.23200
C955        C  0.35303898  0.04423314  0.78782843    -0.03100
C956        C  0.37827884  0.03576312  0.78119040    -0.17600
H957        H  0.41455868  0.99630744  0.75670634     0.20400
H958        H  0.31908152  0.97876413  0.74881264     0.18800
H959        H  0.33752110  0.92841243  0.72141331     0.18700
H960        H  0.39607114  0.04573059  0.78914726     0.14600
C961        C  0.29428993  0.01815998  0.08200174     0.30000
C962        C  0.30063782  0.04367462  0.07185780    -0.36300
C963        C  0.29500841  0.05197196  0.02690312     0.16000
C964        C  0.28349558  0.03638978  0.99414834     0.21800
C965        C  0.27637152  0.01099235  0.00486071    -0.34400
C966        C  0.28234404  0.00251389  0.04984397     0.15900
O967        O  0.30246705  0.00535271  0.11840440    -0.26400
C968        C  0.29535000  0.98128949  0.11012835     0.05700
C969        C  0.28257303  0.97825274  0.06814974    -0.31300
O970        O  0.28424573  0.04657589  0.95222594    -0.23200
C971        C  0.29625244  0.06889798  0.95851311    -0.03100
C972        C  0.30330625  0.07325880  0.00420981    -0.17600
H973        H  0.31144300  0.05543139  0.09589712     0.20400
H974        H  0.26888702  0.99807146  0.97876408     0.18800
H975        H  0.27721450  0.96046529  0.05125948     0.18700
H976        H  0.31534476  0.08850826  0.01764727     0.14600
C977        C  0.36507048  0.18462837  0.05551871     0.30000
C978        C  0.37185474  0.20486352  0.08531205    -0.36300
C979        C  0.37192013  0.19889739  0.13275262     0.16000
C980        C  0.36518604  0.17487479  0.14935228     0.21800
C981        C  0.35863511  0.15475069  0.11980880    -0.34400
C982        C  0.35912968  0.16053353  0.07270791     0.15900
O983        O  0.36437257  0.18539346  0.00982911    -0.26400
C984        C  0.35828270  0.16138956  0.99822482     0.05700
C985        C  0.35490699  0.14514225  0.03586354    -0.31300
O986        O  0.36709677  0.17309511  0.19443467    -0.23200
C987        C  0.37551238  0.19607455  0.20714247    -0.03100
C988        C  0.37894943  0.21307466  0.17041483    -0.17600
H989        H  0.37724583  0.22368693  0.07239967     0.20400
H990        H  0.35406649  0.13569697  0.13266986     0.18800
H991        H  0.35007380  0.12487567  0.03595038     0.18700
H992        H  0.38602125  0.23266287  0.17132268     0.14600
C993        C  0.35263269  0.17650783  0.56340384     0.30000
C994        C  0.34336204  0.18799582  0.60397748    -0.36300
C995        C  0.33545132  0.17105421  0.63887297     0.16000
C996        C  0.33607386  0.14461700  0.63383139     0.21800
C997        C  0.34540557  0.13311969  0.59326336    -0.34400
C998        C  0.35395497  0.15006168  0.55884043     0.15900
O999        O  0.36172027  0.18867729  0.52691954    -0.26400
C1000       C  0.36944717  0.16976352  0.49928139     0.05700
C1001       C  0.36521893  0.14534740  0.51719587    -0.31300
O1002       O  0.32964173  0.13246379  0.67212671    -0.23200
C1003       C  0.32516343  0.15134121  0.70212601    -0.03100
C1004       C  0.32834760  0.17575673  0.68335552    -0.17600
H1005       H  0.34317642  0.20868830  0.60861733     0.20400
H1006       H  0.34687431  0.11241314  0.58956313     0.18800
H1007       H  0.36945982  0.12690129  0.50142563     0.18700
H1008       H  0.32725876  0.19416976  0.70081187     0.14600
C1009       C  0.46117946  0.14841681  0.80468353     0.30000
C1010       C  0.48540054  0.13876575  0.79112166    -0.36300
C1011       C  0.50408543  0.15717592  0.77919513     0.16000
C1012       C  0.49948492  0.18333190  0.78147804     0.21800
C1013       C  0.47521485  0.19297170  0.79473296    -0.34400
C1014       C  0.45636694  0.17455951  0.80564473     0.15900
O1015       O  0.44072547  0.13468261  0.81626626    -0.26400
C1016       C  0.42243992  0.15225982  0.82395291     0.05700
C1017       C  0.43109406  0.17736648  0.81777772    -0.31300
O1018       O  0.51951143  0.19706718  0.76773477    -0.23200
C1019       C  0.53711785  0.17949637  0.75603800    -0.03100
C1020       C  0.52849003  0.15436435  0.76214943    -0.17600
H1021       H  0.48925421  0.11828402  0.78908060     0.20400
H1022       H  0.47112190  0.21344614  0.79549056     0.18800
H1023       H  0.42032919  0.19512471  0.82205334     0.18700
H1024       H  0.53855473  0.13662120  0.75409226     0.14600
C1025       C  0.99844405  0.35598274  0.74688064     0.30000
C1026       C  0.97361772  0.34680676  0.73678370    -0.36300
C1027       C  0.95456147  0.36558695  0.72918670     0.16000
C1028       C  0.95973225  0.39163744  0.72979368     0.21800
C1029       C  0.98456183  0.40083114  0.73984157    -0.34400
C1030       C  0.00344218  0.38205415  0.74893087     0.15900
O1031       O  0.01837760  0.34187822  0.76002892    -0.26400
C1032       C  0.03627187  0.35910687  0.77119407     0.05700
C1033       C  0.02805495  0.38440053  0.76501368    -0.31300
O1034       O  0.93895900  0.40577872  0.72205379    -0.23200
C1035       C  0.92015897  0.38856623  0.71745402    -0.03100
C1036       C  0.92871593  0.36327247  0.72169419    -0.17600
H1037       H  0.96920797  0.32642692  0.73689905     0.20400
H1038       H  0.98863179  0.42123296  0.74223358     0.18800
H1039       H  0.03819871  0.40191916  0.77388315     0.18700
H1040       H  0.91754668  0.34574577  0.71889107     0.14600
C1041       C  0.03214612  0.29102889  0.99706955     0.30000
C1042       C  0.02628982  0.28769846  0.04426229    -0.36300
C1043       C  0.00014115  0.29009660  0.05653713     0.16000
C1044       C  0.98111067  0.29565199  0.02447590     0.21800
C1045       C  0.98677936  0.29768430  0.97706199    -0.34400
C1046       C  0.01285906  0.29508423  0.96478095     0.15900
O1047       O  0.05543217  0.29473035  0.97959123    -0.26400
C1048       C  0.05102620  0.30037904  0.93525135     0.05700
C1049       C  0.02491560  0.30068011  0.92408860    -0.31300
O1050       O  0.95923048  0.30269027  0.04415188    -0.23200
C1051       C  0.96395450  0.30091016  0.08938030    -0.03100
C1052       C  0.98902070  0.29284315  0.09914035    -0.17600
H1053       H  0.04130922  0.28574719  0.07015073     0.20400
H1054       H  0.97221917  0.30329770  0.95202321     0.18800
H1055       H  0.01608278  0.30739814  0.89224140     0.18700
H1056       H  0.99862736  0.29270819  0.13247176     0.14600
C1057       C  0.22120811  0.19552249  0.85491382     0.30000
C1058       C  0.19651091  0.20200248  0.83784186    -0.36300
C1059       C  0.18689709  0.22635781  0.85072776     0.16000
C1060       C  0.20078258  0.24302742  0.87832655     0.21800
C1061       C  0.22509379  0.23643884  0.89584505    -0.34400
C1062       C  0.23461701  0.21229386  0.88302053     0.15900
O1063       O  0.23509474  0.17496453  0.84397040    -0.26400
C1064       C  0.25757653  0.17879807  0.86548288     0.05700
C1065       C  0.25819873  0.20165624  0.89038802    -0.31300
O1066       O  0.18970164  0.26568598  0.88238297    -0.23200
C1067       C  0.16814697  0.26366608  0.85771490    -0.03100
C1068       C  0.16519448  0.23954755  0.83730604    -0.17600
H1069       H  0.18605396  0.18946230  0.81454448     0.20400
H1070       H  0.23636620  0.24976882  0.91628621     0.18800
H1071       H  0.27430524  0.20999311  0.90892098     0.18700
H1072       H  0.15033431  0.23337644  0.81339666     0.14600
C1073       C  0.17096630  0.35818688  0.05520795     0.30000
C1074       C  0.18132693  0.34698089  0.09538171    -0.36300
C1075       C  0.18786779  0.36411242  0.13093616     0.16000
C1076       C  0.18509402  0.39046941  0.12663853     0.21800
C1077       C  0.17459938  0.40162267  0.08666572    -0.34400
C1078       C  0.16732511  0.38447680  0.05177994     0.15900
O1079       O  0.16281685  0.34585078  0.01816421    -0.26400
C1080       C  0.15328829  0.36447694  0.99149159     0.05700
C1081       C  0.15547402  0.38885573  0.01053954    -0.31300
O1082       O  0.19099541  0.40278986  0.16493020    -0.23200
C1083       C  0.19727785  0.38412923  0.19436095    -0.01500
C1084       C  0.19568517  0.35963051  0.17525550    -0.17600
H1085       H  0.18334839  0.32632060  0.09921375     0.20400
H1086       H  0.17142535  0.42217936  0.08370137     0.18800
H1087       H  0.14959394  0.40712330  0.99570233     0.18700
H1088       H  0.19853549  0.34123648  0.19226938     0.14600
C1089       C  0.16607695  0.37578758  0.56214474     0.30000
C1090       C  0.16708245  0.38248699  0.60881430    -0.36300
C1091       C  0.16049717  0.36306986  0.63992775     0.16000
C1092       C  0.15293360  0.33871123  0.62650681     0.21800
C1093       C  0.15257274  0.33174695  0.57953520    -0.34400
C1094       C  0.15955126  0.35120886  0.54817834     0.15900
O1095       O  0.17034420  0.39144124  0.52727054    -0.26400
C1096       C  0.16686585  0.37668492  0.49038753     0.05700
C1097       C  0.16034646  0.35140447  0.50109305    -0.31300
O1098       O  0.14565252  0.32438658  0.66202728    -0.23200
C1099       C  0.14922423  0.33985494  0.69817613    -0.03100
C1100       C  0.15855230  0.36395787  0.68639876    -0.17600
H1101       H  0.17209966  0.40171659  0.62008256     0.20400
H1102       H  0.14670569  0.31277342  0.56818358     0.18800
H1103       H  0.15607241  0.33575619  0.47756343     0.18700
H1104       H  0.16217722  0.38025102  0.70885290     0.14600
C1105       C  0.16186762  0.46053559  0.80503561     0.30000
C1106       C  0.18228276  0.47721357  0.79430872    -0.36300
C1107       C  0.17526891  0.50202603  0.77967325     0.16000
C1108       C  0.14987924  0.50984834  0.77541987     0.21800
C1109       C  0.12944648  0.49321820  0.78645656    -0.34400
C1110       C  0.13647177  0.46843304  0.80140372     0.15900
O1111       O  0.16404649  0.43637648  0.81864319    -0.26400
C1112       C  0.13974560  0.42864890  0.82404400     0.05700
C1113       C  0.12175076  0.44782065  0.81383238    -0.31300
O1114       O  0.14774211  0.53344353  0.75882297    -0.23200
C1115       C  0.17208036  0.54094072  0.75284763    -0.03100
C1116       C  0.19002163  0.52219617  0.76541873    -0.17600
H1117       H  0.20229475  0.47115118  0.79671093     0.20400
H1118       H  0.10943705  0.49908675  0.78300220     0.18800
H1119       H  0.10089015  0.44662927  0.81491803     0.18700
H1120       H  0.21086373  0.52293732  0.76251026     0.14600
loop_ 
_geom_bond_atom_site_label_1 
_geom_bond_atom_site_label_2 
_geom_bond_distance 
_geom_bond_site_symmetry_2 
_ccdc_geom_bond_type 
Fe1          O17   2.041       .  S
Fe1           O7   2.047       .  S
Fe1          O14   2.081       .  S
Fe1           O6   2.026       .  S
Fe1          O12   1.961       .  S
Fe2           O5   2.070       .  S
Fe2           O9   2.082       .  S
Fe2          O13   2.065       .  S
Fe2          O18   2.062       .  S
Fe2          O12   1.961       .  S
Fe3          O21   2.089       .  S
Fe3           O8   2.068       .  S
Fe3          O15   2.077       .  S
Fe3           O4   2.089       .  S
Fe3          O12   1.983       .  S
O4           C11   1.274       .  A
O5           C19   1.274       .  A
O6           C11   1.266       .  A
O7           C10   1.263       .  A
O8           C20   1.267       .  A
O9           C22   1.270       .  A
C10          O15   1.268       .  A
C10        C1067   1.468       .  S
C11        C1099   1.457       .  S
O13          C16   1.267       .  A
O14          C16   1.269       .  A
C16        C1112   1.475       .  S
O17          C22   1.262       .  A
O18          C20   1.266       .  A
C19          O21   1.276       .  A
C19        C1048   1.469       .  S
C20        C1032   1.468       .  S
C22        C1080   1.455       .  S
Fe23         O39   2.066       .  S
Fe23         O29   2.076       .  S
Fe23         O36   2.073       .  S
Fe23         O28   2.050       .  S
Fe23         O34   1.967       .  S
Fe24         O27   2.045       .  S
Fe24         O31   2.073       .  S
Fe24         O35   2.039       .  S
Fe24         O40   2.070       .  S
Fe24         O34   1.957       .  S
Fe25         O43   2.083       .  S
Fe25         O30   2.063       .  S
Fe25         O37   2.053       .  S
Fe25         O26   2.087       .  S
Fe25         O34   1.978       .  S
O26          C33   1.268       .  A
O27          C41   1.263       .  A
O28          C33   1.264       .  A
O29          C32   1.275       .  A
O30          C42   1.270       .  A
O31          C44   1.267       .  A
C32          O37   1.271       .  A
C32        C1003   1.459       .  S
C33        C1064   1.475       .  S
O35          C38   1.266       .  A
O36          C38   1.270       .  A
C38         C984   1.457       .  S
O39          C44   1.268       .  A
O40          C42   1.272       .  A
C41          O43   1.269       .  A
C41         C955   1.466       .  S
C42         C971   1.460       .  S
C44        C1016   1.475       .  S
Fe45         O61   2.037       .  S
Fe45         O51   2.058       .  S
Fe45         O58   2.093       .  S
Fe45         O50   2.030       .  S
Fe45         O56   1.953       .  S
Fe46         O49   2.053       .  S
Fe46         O53   2.087       .  S
Fe46         O57   2.055       .  S
Fe46         O62   2.068       .  S
Fe46         O56   1.953       .  S
Fe47         O65   2.095       .  S
Fe47         O52   2.072       .  S
Fe47         O59   2.081       .  S
Fe47         O48   2.095       .  S
Fe47         O56   1.972       .  S
O48          C55   1.277       .  A
O49          C63   1.271       .  A
O50          C55   1.268       .  A
O51          C54   1.265       .  A
O52          C64   1.268       .  A
O53          C66   1.270       .  A
C54          O59   1.269       .  A
C54         C888   1.475       .  S
C55         C920   1.461       .  S
O57          C60   1.266       .  A
O58          C60   1.273       .  A
C60         C939   1.472       .  S
O61          C66   1.261       .  A
O62          C64   1.268       .  A
C63          O65   1.278       .  A
C63         C859   1.464       .  S
C64         C872   1.473       .  S
C66         C904   1.455       .  S
Fe67         O83   2.058       .  S
Fe67         O73   2.085       .  S
Fe67         O80   2.084       .  S
Fe67         O72   2.047       .  S
Fe67         O78   1.952       .  S
Fe68         O71   2.053       .  S
Fe68         O75   2.080       .  S
Fe68         O79   2.054       .  S
Fe68         O84   2.069       .  S
Fe68         O78   1.947       .  S
Fe69         O87   2.102       .  S
Fe69         O74   2.059       .  S
Fe69         O81   2.038       .  S
Fe69         O70   2.104       .  S
Fe69         O78   1.958       .  S
O70          C77   1.273       .  A
O71          C85   1.268       .  A
O72          C77   1.265       .  A
O73          C76   1.275       .  A
O74          C86   1.266       .  A
O75          C88   1.268       .  A
C76          O81   1.266       .  A
C76         C827   1.456       .  S
C77         C891   1.480       .  S
O79          C82   1.270       .  A
O80          C82   1.273       .  A
C82         C808   1.463       .  S
O83          C88   1.266       .  A
O84          C86   1.269       .  A
C85          O87   1.278       .  A
C85         C795   1.475       .  S
C86         C968   1.454       .  S
C88         C840   1.473       .  S
Fe89        O105   2.055       .  S
Fe89         O95   2.077       .  S
Fe89        O102   2.066       .  S
Fe89         O94   2.053       .  S
Fe89        O100   1.962       .  S
Fe90         O93   2.052       .  S
Fe90         O97   2.073       .  S
Fe90        O101   2.046       .  S
Fe90        O106   2.078       .  S
Fe90        O100   1.947       .  S
Fe91        O109   2.092       .  S
Fe91         O96   2.063       .  S
Fe91        O103   2.043       .  S
Fe91         O92   2.095       .  S
Fe91        O100   1.959       .  S
O92          C99   1.271       .  A
O93         C107   1.265       .  A
O94          C99   1.264       .  A
O95          C98   1.273       .  A
O96         C108   1.271       .  A
O97         C110   1.269       .  A
C98         O103   1.270       .  A
C98         C763   1.455       .  S
C99         C731   1.476       .  S
O101        C104   1.268       .  A
O102        C104   1.269       .  A
C104        C747   1.453       .  S
O105        C110   1.265       .  A
O106        C108   1.273       .  A
C107        O109   1.271       .  A
C107        C712   1.471       .  S
C108        C699   1.459       .  S
C110        C776   1.467       .  S
Fe111       O127   2.048       .  S
Fe111       O117   2.054       .  S
Fe111       O124   2.073       .  S
Fe111       O116   2.048       .  S
Fe111       O122   1.966       .  S
Fe112       O115   2.062       .  S
Fe112       O119   2.066       .  S
Fe112       O123   2.065       .  S
Fe112       O128   2.054       .  S
Fe112       O122   1.972       .  S
Fe113       O131   2.089       .  S
Fe113       O118   2.063       .  S
Fe113       O125   2.080       .  S
Fe113       O114   2.090       .  S
Fe113       O122   1.989       .  S
O114        C121   1.275       .  A
O115        C129   1.271       .  A
O116        C121   1.268       .  A
O117        C120   1.265       .  A
O118        C130   1.267       .  A
O119        C132   1.267       .  A
C120        O125   1.268       .  A
C120        C728   1.475       .  S
C121        C664   1.468       .  S
O123        C126   1.267       .  A
O124        C126   1.269       .  A
C126        C683   1.472       .  S
O127        C132   1.263       .  A
O128        C130   1.264       .  A
C129        O131   1.275       .  A
C129       C1051   1.468       .  S
C130        C632   1.464       .  S
C132        C648   1.452       .  S
Fe133       O149   2.049       .  S
Fe133       O139   2.044       .  S
Fe133       O146   2.074       .  S
Fe133       O138   2.049       .  S
Fe133       O144   1.965       .  S
Fe134       O137   2.066       .  S
Fe134       O141   2.074       .  S
Fe134       O145   2.062       .  S
Fe134       O150   2.057       .  S
Fe134       O144   1.967       .  S
Fe135       O153   2.086       .  S
Fe135       O140   2.068       .  S
Fe135       O147   2.077       .  S
Fe135       O136   2.091       .  S
Fe135       O144   1.985       .  S
O136        C143   1.276       .  A
O137        C151   1.272       .  A
O138        C143   1.270       .  A
O139        C142   1.262       .  A
O140        C152   1.268       .  A
O141        C154   1.268       .  A
C142        O147   1.267       .  A
C142        C571   1.467       .  S
C143        C600   1.467       .  S
O145        C148   1.267       .  A
O146        C148   1.268       .  A
C148        C619   1.471       .  S
O149        C154   1.264       .  A
O150        C152   1.265       .  A
C151        O153   1.276       .  A
C151        C856   1.466       .  S
C152        C555   1.468       .  S
C154        C584   1.455       .  S
Fe155       O171   2.083       .  S
Fe155       O161   2.038       .  S
Fe155       O168   2.049       .  S
Fe155       O160   2.044       .  S
Fe155       O166   1.958       .  S
Fe156       O159   2.075       .  S
Fe156       O163   2.062       .  S
Fe156       O167   2.087       .  S
Fe156       O172   2.056       .  S
Fe156       O166   1.953       .  S
Fe157       O175   2.072       .  S
Fe157       O162   2.083       .  S
Fe157       O169   2.089       .  S
Fe157       O158   2.074       .  S
Fe157       O166   1.979       .  S
O158        C165   1.267       .  A
O159        C173   1.269       .  A
O160        C165   1.264       .  A
O161        C164   1.268       .  A
O162        C174   1.274       .  A
O163        C176   1.268       .  A
C164        O169   1.275       .  A
C164        C523   1.459       .  S
C165        C568   1.467       .  S
O167        C170   1.270       .  A
O168        C170   1.262       .  A
C170        C504   1.461       .  S
O171        C176   1.270       .  A
O172        C174   1.271       .  A
C173        O175   1.269       .  A
C173        C491   1.476       .  S
C174        C696   1.461       .  S
C176        C536   1.473       .  S
Fe177       O193   2.040       .  S
Fe177       O183   2.064       .  S
Fe177       O190   2.092       .  S
Fe177       O182   2.030       .  S
Fe177       O188   1.952       .  S
Fe178       O181   2.068       .  S
Fe178       O185   2.084       .  S
Fe178       O189   2.071       .  S
Fe178       O194   2.068       .  S
Fe178       O188   1.954       .  S
Fe179       O197   2.072       .  S
Fe179       O184   2.070       .  S
Fe179       O191   2.073       .  S
Fe179       O180   2.082       .  S
Fe179       O188   1.975       .  S
O180        C187   1.275       .  A
O181        C195   1.273       .  A
O182        C187   1.268       .  A
O183        C186   1.266       .  A
O184        C196   1.268       .  A
O185        C198   1.271       .  A
C186        O191   1.267       .  A
C186        C459   1.474       .  S
C187        C987   1.451       .  S
O189        C192   1.268       .  A
O190        C192   1.271       .  A
C192        C792   1.480       .  S
O193        C198   1.263       .  A
O194        C196   1.267       .  A
C195        O197   1.272       .  A
C195        C472   1.460       .  S
C196        C779   1.470       .  S
C198       C1000   1.453       .  S
Fe199       O215   2.057       .  S
Fe199       O205   2.069       .  S
Fe199       O212   2.058       .  S
Fe199       O204   2.045       .  S
Fe199       O210   1.967       .  S
Fe200       O203   2.047       .  S
Fe200       O207   2.069       .  S
Fe200       O211   2.057       .  S
Fe200       O216   2.070       .  S
Fe200       O210   1.956       .  S
Fe201       O219   2.099       .  S
Fe201       O206   2.068       .  S
Fe201       O213   2.057       .  S
Fe201       O202   2.101       .  S
Fe201       O210   1.969       .  S
O202        C209   1.272       .  A
O203        C217   1.266       .  A
O204        C209   1.264       .  A
O205        C208   1.271       .  A
O206        C218   1.269       .  A
O207        C220   1.267       .  A
C208        O213   1.270       .  A
C208       C1083   1.458       .  S
C209        C456   1.481       .  S
O211        C214   1.270       .  A
O212        C214   1.269       .  A
C214       C1096   1.456       .  S
O215        C220   1.265       .  A
O216        C218   1.269       .  A
C217        O219   1.274       .  A
C217        C936   1.473       .  S
C218        C440   1.461       .  S
C220        C635   1.465       .  S
Fe221       O237   2.058       .  S
Fe221       O227   2.086       .  S
Fe221       O234   2.084       .  S
Fe221       O226   2.047       .  S
Fe221       O232   1.956       .  S
Fe222       O225   2.054       .  S
Fe222       O229   2.072       .  S
Fe222       O233   2.061       .  S
Fe222       O238   2.069       .  S
Fe222       O232   1.942       .  S
Fe223       O241   2.093       .  S
Fe223       O228   2.067       .  S
Fe223       O235   2.041       .  S
Fe223       O224   2.095       .  S
Fe223       O232   1.964       .  S
O224        C231   1.271       .  A
O225        C239   1.268       .  A
O226        C231   1.265       .  A
O227        C230   1.275       .  A
O228        C240   1.270       .  A
O229        C242   1.267       .  A
C230        O235   1.268       .  A
C230        C651   1.457       .  S
C231        C411   1.476       .  S
O233        C236   1.272       .  A
O234        C236   1.273       .  A
C236        C667   1.467       .  S
O237        C242   1.267       .  A
O238        C240   1.271       .  A
C239        O241   1.272       .  A
C239        C616   1.470       .  S
C240        C427   1.461       .  S
C242       C1035   1.469       .  S
Fe243       O259   2.044       .  S
Fe243       O249   2.054       .  S
Fe243       O256   2.084       .  S
Fe243       O248   2.044       .  S
Fe243       O254   1.967       .  S
Fe244       O247   2.073       .  S
Fe244       O251   2.070       .  S
Fe244       O255   2.068       .  S
Fe244       O260   2.062       .  S
Fe244       O254   1.968       .  S
Fe245       O263   2.069       .  S
Fe245       O250   2.076       .  S
Fe245       O257   2.081       .  S
Fe245       O246   2.077       .  S
Fe245       O254   1.986       .  S
O246        C253   1.274       .  A
O247        C261   1.275       .  A
O248        C253   1.268       .  A
O249        C252   1.264       .  A
O250        C262   1.267       .  A
O251        C264   1.266       .  A
C252        O257   1.267       .  A
C252        C408   1.474       .  S
C253        C744   1.457       .  S
O255        C258   1.269       .  A
O256        C258   1.272       .  A
C258        C488   1.476       .  S
O259        C264   1.262       .  A
O260        C262   1.264       .  A
C261        O263   1.273       .  A
C261        C475   1.460       .  S
C262       C1019   1.475       .  S
C264        C760   1.454       .  S
Fe265       O281   2.079       .  S
Fe265       O271   2.059       .  S
Fe265       O278   2.062       .  S
Fe265       O270   2.088       .  S
Fe265       O276   1.957       .  S
Fe266       O269   2.077       .  S
Fe266       O273   2.043       .  S
Fe266       O277   2.067       .  S
Fe266       O282   2.055       .  S
Fe266       O276   1.942       .  S
Fe267       O285   2.068       .  S
Fe267       O272   2.087       .  S
Fe267       O279   2.075       .  S
Fe267       O268   2.048       .  S
Fe267       O276   1.951       .  S
O268        C275   1.272       .  A
O269        C283   1.271       .  A
O270        C275   1.275       .  A
O271        C274   1.266       .  A
O272        C284   1.271       .  A
O273        C286   1.269       .  A
C274        O279   1.267       .  A
C274        C379   1.468       .  S
C275        C507   1.464       .  S
O277        C280   1.267       .  A
O278        C280   1.268       .  A
C280        C715   1.467       .  S
O281        C286   1.272       .  A
O282        C284   1.266       .  A
C283        O285   1.270       .  A
C283        C392   1.460       .  S
C284        C843   1.467       .  S
C286        C520   1.456       .  S
Fe287       O303   2.062       .  S
Fe287       O293   2.071       .  S
Fe287       O300   2.070       .  S
Fe287       O292   2.041       .  S
Fe287       O298   1.974       .  S
Fe288       O291   2.059       .  S
Fe288       O295   2.067       .  S
Fe288       O299   2.054       .  S
Fe288       O304   2.060       .  S
Fe288       O298   1.964       .  S
Fe289       O307   2.076       .  S
Fe289       O294   2.069       .  S
Fe289       O301   2.054       .  S
Fe289       O290   2.085       .  S
Fe289       O298   1.986       .  S
O290        C297   1.268       .  A
O291        C305   1.266       .  A
O292        C297   1.264       .  A
O293        C296   1.273       .  A
O294        C306   1.270       .  A
O295        C308   1.267       .  A
C296        O301   1.269       .  A
C296        C587   1.460       .  S
C297        C376   1.470       .  S
O299        C302   1.267       .  A
O300        C302   1.268       .  A
C302        C603   1.461       .  S
O303        C308   1.267       .  A
O304        C306   1.269       .  A
C305        O307   1.269       .  A
C305        C680   1.470       .  S
C306        C424   1.461       .  S
C308        C875   1.468       .  S
Fe309       O325   2.042       .  S
Fe309       O315   2.044       .  S
Fe309       O322   2.072       .  S
Fe309       O314   2.035       .  S
Fe309       O320   1.960       .  S
Fe310       O313   2.051       .  S
Fe310       O317   2.074       .  S
Fe310       O321   2.052       .  S
Fe310       O326   2.057       .  S
Fe310       O320   1.963       .  S
Fe311       O329   2.094       .  S
Fe311       O316   2.076       .  S
Fe311       O323   2.094       .  S
Fe311       O312   2.096       .  S
Fe311       O320   1.981       .  S
O312        C319   1.279       .  A
O313        C327   1.272       .  A
O314        C319   1.268       .  A
O315        C318   1.262       .  A
O316        C328   1.268       .  A
O317        C330   1.268       .  A
C318        O323   1.269       .  A
C318        C360   1.481       .  S
C319        C811   1.462       .  S
O321        C324   1.264       .  A
O322        C324   1.268       .  A
C324        C952   1.466       .  S
O325        C330   1.263       .  A
O326        C328   1.263       .  A
C327        O329   1.278       .  A
C327        C395   1.465       .  S
C328        C539   1.473       .  S
C330        C824   1.453       .  S
Fe331       O347   2.063       .  S
Fe331       O337   2.075       .  S
Fe331       O344   2.067       .  S
Fe331       O336   2.051       .  S
Fe331       O342   1.969       .  S
Fe332       O335   2.055       .  S
Fe332       O339   2.081       .  S
Fe332       O343   2.054       .  S
Fe332       O348   2.080       .  S
Fe332       O342   1.954       .  S
Fe333       O351   2.087       .  S
Fe333       O338   2.067       .  S
Fe333       O345   2.052       .  S
Fe333       O334   2.099       .  S
Fe333       O342   1.973       .  S
O334        C341   1.272       .  A
O335        C349   1.264       .  A
O336        C341   1.264       .  A
O337        C340   1.273       .  A
O338        C350   1.271       .  A
O339        C352   1.270       .  A
C340        O345   1.271       .  A
C340        C907   1.458       .  S
C341        C363   1.479       .  S
O343        C346   1.268       .  A
O344        C346   1.269       .  A
C346        C923   1.457       .  S
O347        C352   1.266       .  A
O348        C350   1.274       .  A
C349        O351   1.271       .  A
C349       C1115   1.472       .  S
C350        C443   1.466       .  S
C352        C552   1.475       .  S
C353        C358   1.380       .  A
C353        C354   1.412       .  A
C353        O359   1.328       .  A
C354        C355   1.412       .  A
C354        H365   1.083       .  S
C355        C364   1.372       .  A
C355        C356   1.380       .  A
C356        C357   1.400       .  A
C356        O362   1.317       .  A
C357        C358   1.400       .  A
C357        H366   1.082       .  S
C358        C361   1.356       .  A
O359        C360   1.335       .  A
C360        C361   1.392       .  A
C361        H367   1.082       .  S
O362        C363   1.330       .  A
C363        C364   1.397       .  A
C364        H368   1.083       .  S
C369        C374   1.380       .  A
C369        C370   1.408       .  A
C369        O375   1.325       .  A
C370        C371   1.408       .  A
C370        H381   1.082       .  S
C371        C380   1.365       .  A
C371        C372   1.381       .  A
C372        C373   1.396       .  A
C372        O378   1.315       .  A
C373        C374   1.396       .  A
C373        H382   1.082       .  S
C374        C377   1.352       .  A
O375        C376   1.334       .  A
C376        C377   1.388       .  A
C377        H383   1.082       .  S
O378        C379   1.327       .  A
C379        C380   1.394       .  A
C380        H384   1.082       .  S
C385        C390   1.381       .  A
C385        C386   1.399       .  A
C385        O391   1.314       .  A
C386        C387   1.398       .  A
C386        H397   1.083       .  S
C387        C396   1.357       .  A
C387        C388   1.381       .  A
C388        C389   1.407       .  A
C388        O394   1.322       .  A
C389        C390   1.406       .  A
C389        H398   1.082       .  S
C390        C393   1.368       .  A
O391        C392   1.328       .  A
C392        C393   1.391       .  A
C393        H399   1.082       .  S
O394        C395   1.332       .  A
C395        C396   1.389       .  A
C396        H400   1.083       .  S
C401        C406   1.381       .  A
C401        C402   1.398       .  A
C401        O407   1.315       .  A
C402        C403   1.397       .  A
C402        H413   1.083       .  S
C403        C412   1.355       .  A
C403        C404   1.380       .  A
C404        C405   1.411       .  A
C404        O410   1.326       .  A
C405        C406   1.411       .  A
C405        H414   1.083       .  S
C406        C409   1.371       .  A
O407        C408   1.328       .  A
C408        C409   1.396       .  A
C409        H415   1.083       .  S
O410        C411   1.335       .  A
C411        C412   1.390       .  A
C412        H416   1.083       .  S
C417        C422   1.382       .  A
C417        C418   1.398       .  A
C417        O423   1.314       .  A
C418        C419   1.398       .  A
C418        H429   1.083       .  S
C419        C428   1.354       .  A
C419        C420   1.382       .  A
C420        C421   1.405       .  A
C420        O426   1.323       .  A
C421        C422   1.405       .  A
C421        H430   1.082       .  S
C422        C425   1.365       .  A
O423        C424   1.328       .  A
C424        C425   1.390       .  A
C425        H431   1.082       .  S
O426        C427   1.330       .  A
C427        C428   1.388       .  A
C428        H432   1.083       .  S
C433        C438   1.381       .  A
C433        C434   1.399       .  A
C433        O439   1.314       .  A
C434        C435   1.398       .  A
C434        H445   1.082       .  S
C435        C444   1.358       .  A
C435        C436   1.381       .  A
C436        C437   1.408       .  A
C436        O442   1.323       .  A
C437        C438   1.407       .  A
C437        H446   1.083       .  S
C438        C441   1.368       .  A
O439        C440   1.328       .  A
C440        C441   1.391       .  A
C441        H447   1.083       .  S
O442        C443   1.333       .  A
C443        C444   1.387       .  A
C444        H448   1.083       .  S
C449        C454   1.380       .  A
C449        C450   1.411       .  A
C449        O455   1.327       .  A
C450        C451   1.411       .  A
C450        H461   1.083       .  S
C451        C460   1.371       .  A
C451        C452   1.380       .  A
C452        C453   1.399       .  A
C452        O458   1.316       .  A
C453        C454   1.399       .  A
C453        H462   1.082       .  S
C454        C457   1.355       .  A
O455        C456   1.335       .  A
C456        C457   1.391       .  A
C457        H463   1.082       .  S
O458        C459   1.329       .  A
C459        C460   1.396       .  A
C460        H464   1.083       .  S
C465        C470   1.382       .  A
C465        C466   1.402       .  A
C465        O471   1.320       .  A
C466        C467   1.402       .  A
C466        H477   1.083       .  S
C467        C476   1.358       .  A
C467        C468   1.382       .  A
C468        C469   1.400       .  A
C468        O474   1.319       .  A
C469        C470   1.401       .  A
C469        H478   1.083       .  S
C470        C473   1.357       .  A
O471        C472   1.329       .  A
C472        C473   1.387       .  A
C473        H479   1.083       .  S
O474        C475   1.329       .  A
C475        C476   1.388       .  A
C476        H480   1.083       .  S
C481        C486   1.380       .  A
C481        C482   1.405       .  A
C481        O487   1.321       .  A
C482        C483   1.405       .  A
C482        H493   1.084       .  S
C483        C492   1.364       .  A
C483        C484   1.380       .  A
C484        C485   1.406       .  A
C484        O490   1.322       .  A
C485        C486   1.405       .  A
C485        H494   1.083       .  S
C486        C489   1.364       .  A
O487        C488   1.332       .  A
C488        C489   1.393       .  A
C489        H495   1.083       .  S
O490        C491   1.333   1_545  A
C491        C492   1.393   1_565  A
C492        H496   1.083   1_545  S
C497        C502   1.382       .  A
C497        C498   1.397       .  A
C497        O503   1.315       .  A
C498        C499   1.397       .  A
C498        H509   1.084       .  S
C499        C508   1.354       .  A
C499        C500   1.381       .  A
C500        C501   1.405       .  A
C500        O506   1.321       .  A
C501        C502   1.405       .  A
C501        H510   1.084       .  S
C502        C505   1.364       .  A
O503        C504   1.327   1_554  A
C504        C505   1.392   1_556  A
C505        H511   1.083       .  S
O506        C507   1.332       .  A
C507        C508   1.387       .  A
C508        H512   1.083       .  S
C513        C518   1.381       .  A
C513        C514   1.405       .  A
C513        O519   1.319       .  A
C514        C515   1.404       .  A
C514        H525   1.084       .  S
C515        C524   1.365       .  A
C515        C516   1.382       .  A
C516        C517   1.394       .  A
C516        O522   1.309       .  A
C517        C518   1.392       .  A
C517        H526   1.084       .  S
C518        C521   1.351       .  A
O519        C520   1.331       .  A
C520        C521   1.385       .  A
C521        H527   1.083       .  S
O522        C523   1.326       .  A
C523        C524   1.392       .  A
C524        H528   1.083       .  S
C529        C534   1.380       .  A
C529        C530   1.404       .  A
C529        O535   1.319       .  A
C530        C531   1.403       .  A
C530        H541   1.084       .  S
C531        C540   1.364       .  A
C531        C532   1.380       .  A
C532        C533   1.405       .  A
C532        O538   1.320       .  A
C533        C534   1.404       .  A
C533        H542   1.083       .  S
C534        C537   1.364       .  A
O535        C536   1.332       .  A
C536        C537   1.392       .  A
C537        H543   1.083       .  S
O538        C539   1.332       .  A
C539        C540   1.391       .  A
C540        H544   1.083       .  S
C545        C550   1.380       .  A
C545        C546   1.406       .  A
C545        O551   1.321       .  A
C546        C547   1.405       .  A
C546        H557   1.080       .  S
C547        C556   1.364       .  A
C547        C548   1.380       .  A
C548        C549   1.404       .  A
C548        O554   1.319   1_455  A
C549        C550   1.404       .  A
C549        H558   1.079       .  S
C550        C553   1.364       .  A
O551        C552   1.333       .  A
C552        C553   1.392       .  A
C553        H559   1.081       .  S
O554        C555   1.331       .  A
C555        C556   1.392   1_655  A
C556        H560   1.081       .  S
C561        C566   1.381       .  A
C561        C562   1.408       .  A
C561        O567   1.324       .  A
C562        C563   1.408       .  A
C562        H573   1.083       .  S
C563        C572   1.369       .  A
C563        C564   1.381       .  A
C564        C565   1.396       .  A
C564        O570   1.312       .  A
C565        C566   1.395       .  A
C565        H574   1.083       .  S
C566        C569   1.351       .  A
O567        C568   1.333       .  A
C568        C569   1.387       .  A
C569        H575   1.083       .  S
O570        C571   1.327       .  A
C571        C572   1.394       .  A
C572        H576   1.082       .  S
C577        C582   1.382       .  A
C577        C578   1.399       .  A
C577        O583   1.315       .  A
C578        C579   1.398       .  A
C578        H589   1.083       .  S
C579        C588   1.357       .  A
C579        C580   1.382       .  A
C580        C581   1.401       .  A
C580        O586   1.316       .  A
C581        C582   1.400       .  A
C581        H590   1.083       .  S
C582        C585   1.359       .  A
O583        C584   1.327   1_554  A
C584        C585   1.388   1_556  A
C585        H591   1.083   1_554  S
O586        C587   1.329       .  A
C587        C588   1.389       .  A
C588        H592   1.083       .  S
C593        C598   1.381       .  A
C593        C594   1.398       .  A
C593        O599   1.313       .  A
C594        C595   1.396       .  A
C594        H605   1.084       .  S
C595        C604   1.356       .  A
C595        C596   1.381       .  A
C596        C597   1.406       .  A
C596        O602   1.321       .  A
C597        C598   1.406       .  A
C597        H606   1.084       .  S
C598        C601   1.367       .  A
O599        C600   1.328       .  A
C600        C601   1.393       .  A
C601        H607   1.083       .  S
O602        C603   1.331       .  A
C603        C604   1.386       .  A
C604        H608   1.084       .  S
C609        C614   1.381       .  A
C609        C610   1.405       .  A
C609        O615   1.320       .  A
C610        C611   1.404       .  A
C610        H621   1.085       .  S
C611        C620   1.362       .  A
C611        C612   1.381       .  A
C612        C613   1.401       .  A
C612        O618   1.318       .  A
C613        C614   1.401       .  A
C613        H622   1.084       .  S
C614        C617   1.359       .  A
O615        C616   1.332       .  A
C616        C617   1.390       .  A
C617        H623   1.083       .  S
O618        C619   1.330       .  A
C619        C620   1.393       .  A
C620        H624   1.084       .  S
C625        C630   1.381       .  A
C625        C626   1.404       .  A
C625        O631   1.318   1_455  A
C626        C627   1.403       .  A
C626        H637   1.084       .  S
C627        C636   1.362       .  A
C627        C628   1.381       .  A
C628        C629   1.401       .  A
C628        O634   1.317       .  A
C629        C630   1.400       .  A
C629        H638   1.084       .  S
C630        C633   1.359       .  A
O631        C632   1.331       .  A
C632        C633   1.389   1_655  A
C633        H639   1.084       .  S
O634        C635   1.329       .  A
C635        C636   1.391       .  A
C636        H640   1.083       .  S
C641        C646   1.382       .  A
C641        C642   1.401       .  A
C641        O647   1.317   1_556  A
C642        C643   1.400       .  A
C642        H653   1.083       .  S
C643        C652   1.361       .  A
C643        C644   1.382       .  A
C644        C645   1.398       .  A
C644        O650   1.312       .  A
C645        C646   1.396       .  A
C645        H654   1.084       .  S
C646        C649   1.355   1_556  A
O647        C648   1.328       .  A
C648        C649   1.385       .  A
C649        H655   1.083       .  S
O650        C651   1.327       .  A
C651        C652   1.389       .  A
C652        H656   1.083       .  S
C657        C662   1.381       .  A
C657        C658   1.398       .  A
C657        O663   1.312       .  A
C658        C659   1.396       .  A
C658        H669   1.084       .  S
C659        C668   1.357       .  A
C659        C660   1.380       .  A
C660        C661   1.408       .  A
C660        O666   1.321       .  A
C661        C662   1.407       .  A
C661        H670   1.084       .  S
C662        C665   1.369       .  A
O663        C664   1.328       .  A
C664        C665   1.394       .  A
C665        H671   1.083       .  S
O666        C667   1.333       .  A
C667        C668   1.387       .  A
C668        H672   1.083       .  S
C673        C678   1.381       .  A
C673        C674   1.400       .  A
C673        O679   1.317       .  A
C674        C675   1.400       .  A
C674        H685   1.084       .  S
C675        C684   1.358       .  A
C675        C676   1.380       .  A
C676        C677   1.406       .  A
C676        O682   1.322       .  A
C677        C678   1.406       .  A
C677        H686   1.083       .  S
C678        C681   1.364       .  A
O679        C680   1.329       .  A
C680        C681   1.394       .  A
C681        H687   1.083       .  S
O682        C683   1.333       .  A
C683        C684   1.390       .  A
C684        H688   1.084       .  S
C689        C694   1.381   1_546  A
C689        C690   1.405       .  A
C689        O695   1.319   1_545  A
C690        C691   1.404   1_556  A
C690        H701   1.082       .  S
C691        C700   1.365       .  A
C691        C692   1.381       .  A
C692        C693   1.400   1_545  A
C692        O698   1.315       .  A
C693        C694   1.399       .  A
C693        H702   1.082       .  S
C694        C697   1.359   1_554  A
O695        C696   1.331       .  A
C696        C697   1.388       .  A
C697        H703   1.083   1_556  S
O698        C699   1.328       .  A
C699        C700   1.390       .  A
C700        H704   1.083       .  S
C705        C710   1.381       .  A
C705        C706   1.402   1_545  A
C705        O711   1.318       .  A
C706        C707   1.401       .  A
C706        H717   1.084       .  S
C707        C716   1.362       .  A
C707        C708   1.381       .  A
C708        C709   1.404       .  A
C708        O714   1.318       .  A
C709        C710   1.403   1_565  A
C709        H718   1.084       .  S
C710        C713   1.362       .  A
O711        C712   1.330       .  A
C712        C713   1.393       .  A
C713        H719   1.083       .  S
O714        C715   1.331       .  A
C715        C716   1.390       .  A
C716        H720   1.084       .  S
C721        C726   1.380       .  A
C721        C722   1.408       .  A
C721        O727   1.324       .  A
C722        C723   1.408       .  A
C722        H733   1.083       .  S
C723        C732   1.368       .  A
C723        C724   1.380       .  A
C724        C725   1.402       .  A
C724        O730   1.318       .  A
C725        C726   1.401       .  A
C725        H734   1.082       .  S
C726        C729   1.358       .  A
O727        C728   1.333       .  A
C728        C729   1.391       .  A
C729        H735   1.082       .  S
O730        C731   1.331       .  A
C731        C732   1.394       .  A
C732        H736   1.083       .  S
C737        C742   1.382       .  A
C737        C738   1.396       .  A
C737        O743   1.310       .  A
C738        C739   1.394       .  A
C738        H749   1.084       .  S
C739        C748   1.353   1_556  A
C739        C740   1.382       .  A
C740        C741   1.403       .  A
C740        O746   1.317   1_556  A
C741        C742   1.402       .  A
C741        H750   1.084       .  S
C742        C745   1.363       .  A
O743        C744   1.327       .  A
C744        C745   1.390       .  A
C745        H751   1.083       .  S
O746        C747   1.329       .  A
C747        C748   1.385       .  A
C748        H752   1.083       .  S
C753        C758   1.382       .  A
C753        C754   1.399       .  A
C753        O759   1.315       .  A
C754        C755   1.398       .  A
C754        H765   1.084       .  S
C755        C764   1.355       .  A
C755        C756   1.382       .  A
C756        C757   1.399       .  A
C756        O762   1.316       .  A
C757        C758   1.399       .  A
C757        H766   1.083       .  S
C758        C761   1.357       .  A
O759        C760   1.328       .  A
C760        C761   1.387       .  A
C761        H767   1.083       .  S
O762        C763   1.328       .  A
C763        C764   1.388       .  A
C764        H768   1.084       .  S
C769        C774   1.381       .  A
C769        C770   1.405       .  A
C769        O775   1.319       .  A
C770        C771   1.404       .  A
C770        H781   1.083       .  S
C771        C780   1.365       .  A
C771        C772   1.381       .  A
C772        C773   1.403       .  A
C772        O778   1.318       .  A
C773        C774   1.402       .  A
C773        H782   1.083       .  S
C774        C777   1.362       .  A
O775        C776   1.331       .  A
C776        C777   1.390       .  A
C777        H783   1.083       .  S
O778        C779   1.330       .  A
C779        C780   1.392       .  A
C780        H784   1.083       .  S
C785        C790   1.380       .  A
C785        C786   1.404       .  A
C785        O791   1.320       .  A
C786        C787   1.403       .  A
C786        H797   1.083       .  S
C787        C796   1.362       .  A
C787        C788   1.380       .  A
C788        C789   1.407       .  A
C788        O794   1.322       .  A
C789        C790   1.407       .  A
C789        H798   1.084       .  S
C790        C793   1.367       .  A
O791        C792   1.332       .  A
C792        C793   1.394       .  A
C793        H799   1.083       .  S
O794        C795   1.333   1_545  A
C795        C796   1.391   1_565  A
C796        H800   1.083       .  S
C801        C806   1.381       .  A
C801        C802   1.405       .  A
C801        O807   1.318   1_556  A
C802        C803   1.402       .  A
C802        H813   1.084       .  S
C803        C812   1.366       .  A
C803        C804   1.381       .  A
C804        C805   1.399       .  A
C804        O810   1.311       .  A
C805        C806   1.397       .  A
C805        H814   1.084       .  S
C806        C809   1.357   1_556  A
O807        C808   1.330       .  A
C808        C809   1.389       .  A
C809        H815   1.083       .  S
O810        C811   1.329       .  A
C811        C812   1.391       .  A
C812        H816   1.083       .  S
C817        C822   1.382       .  A
C817        C818   1.399       .  A
C817        O823   1.314       .  A
C818        C819   1.398       .  A
C818        H829   1.083       .  S
C819        C828   1.360       .  A
C819        C820   1.382       .  A
C820        C821   1.400       .  A
C820        O826   1.313       .  A
C821        C822   1.398       .  A
C821        H830   1.084       .  S
C822        C825   1.358       .  A
O823        C824   1.327       .  A
C824        C825   1.387       .  A
C825        H831   1.083       .  S
O826        C827   1.329       .  A
C827        C828   1.388       .  A
C828        H832   1.083       .  S
C833        C838   1.380       .  A
C833        C834   1.406       .  A
C833        O839   1.321       .  A
C834        C835   1.405       .  A
C834        H845   1.083       .  S
C835        C844   1.366       .  A
C835        C836   1.381       .  A
C836        C837   1.401       .  A
C836        O842   1.316       .  A
C837        C838   1.400       .  A
C837        H846   1.084       .  S
C838        C841   1.360       .  A
O839        C840   1.333       .  A
C840        C841   1.391       .  A
C841        H847   1.084       .  S
O842        C843   1.329       .  A
C843        C844   1.393       .  A
C844        H848   1.083       .  S
C849        C854   1.381   1_654  A
C849        C850   1.405       .  A
C849        O855   1.321   1_554  A
C850        C851   1.405   1_655  A
C850        H861   1.082       .  S
C851        C860   1.365       .  A
C851        C852   1.381       .  A
C852        C853   1.402   1_554  A
C852        O858   1.318       .  A
C853        C854   1.402       .  A
C853        H862   1.083       .  S
C854        C857   1.361   1_455  A
O855        C856   1.331       .  A
C856        C857   1.390       .  A
C857        H863   1.083   1_655  S
O858        C859   1.330       .  A
C859        C860   1.391       .  A
C860        H864   1.082       .  S
C865        C870   1.380       .  A
C865        C866   1.407   1_455  A
C865        O871   1.322       .  A
C866        C867   1.406       .  A
C866        H877   1.084       .  S
C867        C876   1.364       .  A
C867        C868   1.381       .  A
C868        C869   1.402       .  A
C868        O874   1.318       .  A
C869        C870   1.402   1_655  A
C869        H878   1.084       .  S
C870        C873   1.361       .  A
O871        C872   1.333       .  A
C872        C873   1.391       .  A
C873        H879   1.083       .  S
O874        C875   1.329       .  A
C875        C876   1.392       .  A
C876        H880   1.083       .  S
C881        C886   1.380       .  A
C881        C882   1.400       .  A
C881        O887   1.316       .  A
C882        C883   1.399       .  A
C882        H893   1.083       .  S
C883        C892   1.356       .  A
C883        C884   1.380       .  A
C884        C885   1.411       .  A
C884        O890   1.327       .  A
C885        C886   1.411       .  A
C885        H894   1.083       .  S
C886        C889   1.371       .  A
O887        C888   1.330       .  A
C888        C889   1.395       .  A
C889        H895   1.083       .  S
O890        C891   1.335       .  A
C891        C892   1.391       .  A
C892        H896   1.083       .  S
C897        C902   1.382       .  A
C897        C898   1.398       .  A
C897        O903   1.315   1_556  A
C898        C899   1.398       .  A
C898        H909   1.084       .  S
C899        C908   1.356       .  A
C899        C900   1.382       .  A
C900        C901   1.401       .  A
C900        O906   1.316       .  A
C901        C902   1.400       .  A
C901        H910   1.084       .  S
C902        C905   1.359   1_556  A
O903        C904   1.327       .  A
C904        C905   1.389       .  A
C905        H911   1.083       .  S
O906        C907   1.329       .  A
C907        C908   1.388       .  A
C908        H912   1.083       .  S
C913        C918   1.381       .  A
C913        C914   1.404       .  A
C913        O919   1.321       .  A
C914        C915   1.404       .  A
C914        H925   1.083       .  S
C915        C924   1.362       .  A
C915        C916   1.382       .  A
C916        C917   1.394       .  A
C916        O922   1.313       .  A
C917        C918   1.395       .  A
C917        H926   1.084       .  S
C918        C921   1.349       .  A
O919        C920   1.331       .  A
C920        C921   1.388       .  A
C921        H927   1.084       .  S
O922        C923   1.326       .  A
C923        C924   1.391       .  A
C924        H928   1.083       .  S
C929        C934   1.381       .  A
C929        C930   1.405       .  A
C929        O935   1.321       .  A
C930        C931   1.405       .  A
C930        H941   1.084       .  S
C931        C940   1.363       .  A
C931        C932   1.381       .  A
C932        C933   1.402       .  A
C932        O938   1.319       .  A
C933        C934   1.402       .  A
C933        H942   1.084       .  S
C934        C937   1.359       .  A
O935        C936   1.332       .  A
C936        C937   1.392       .  A
C937        H943   1.084       .  S
O938        C939   1.331       .  A
C939        C940   1.393       .  A
C940        H944   1.083       .  S
C945        C950   1.381       .  A
C945        C946   1.402       .  A
C945        O951   1.318       .  A
C946        C947   1.402   1_565  A
C946        H957   1.084       .  S
C947        C956   1.359       .  A
C947        C948   1.381       .  A
C948        C949   1.401   1_545  A
C948        O954   1.318       .  A
C949        C950   1.401       .  A
C949        H958   1.084       .  S
C950        C953   1.358       .  A
O951        C952   1.330       .  A
C952        C953   1.391       .  A
C953        H959   1.084       .  S
O954        C955   1.330       .  A
C955        C956   1.391       .  A
C956        H960   1.083       .  S
C961        C966   1.382       .  A
C961        C962   1.397       .  A
C961        O967   1.312       .  A
C962        C963   1.396       .  A
C962        H973   1.082       .  S
C963        C972   1.356       .  A
C963        C964   1.381   1_554  A
C964        C965   1.405   1_556  A
C964        O970   1.320       .  A
C965        C966   1.404       .  A
C965        H974   1.082   1_544  S
C966        C969   1.366   1_545  A
O967        C968   1.326   1_545  A
C968        C969   1.389       .  A
C969        H975   1.082       .  S
O970        C971   1.330       .  A
C971        C972   1.387   1_556  A
C972        H976   1.082       .  S
C977        C982   1.382       .  A
C977        C978   1.404       .  A
C977        O983   1.319       .  A
C978        C979   1.403       .  A
C978        H989   1.084       .  S
C979        C988   1.363       .  A
C979        C980   1.382       .  A
C980        C981   1.393       .  A
C980        O986   1.307       .  A
C981        C982   1.392       .  A
C981        H990   1.084       .  S
C982        C985   1.349       .  A
O983        C984   1.331   1_554  A
C984        C985   1.386   1_556  A
C985        H991   1.083       .  S
O986        C987   1.324       .  A
C987        C988   1.390       .  A
C988        H992   1.083       .  S
C993        C998   1.382       .  A
C993        C994   1.399       .  A
C993        O999   1.315       .  A
C994        C995   1.399       .  A
C994       H1005   1.084       .  S
C995       C1004   1.358       .  A
C995        C996   1.382       .  A
C996        C997   1.400       .  A
C996       O1002   1.315       .  A
C997        C998   1.399       .  A
C997       H1006   1.084       .  S
C998       C1001   1.358       .  A
O999       C1000   1.327       .  A
C1000      C1001   1.387       .  A
C1001      H1007   1.083       .  S
O1002      C1003   1.329       .  A
C1003      C1004   1.389       .  A
C1004      H1008   1.083       .  S
C1009      C1014   1.380       .  A
C1009      C1010   1.406       .  A
C1009      O1015   1.322       .  A
C1010      C1011   1.406       .  A
C1010      H1021   1.084       .  S
C1011      C1020   1.364       .  A
C1011      C1012   1.381       .  A
C1012      C1013   1.405       .  A
C1012      O1018   1.322       .  A
C1013      C1014   1.405       .  A
C1013      H1022   1.084       .  S
C1014      C1017   1.363       .  A
O1015      C1016   1.332       .  A
C1016      C1017   1.392       .  A
C1017      H1023   1.084       .  S
O1018      C1019   1.332       .  A
C1019      C1020   1.392       .  A
C1020      H1024   1.083       .  S
C1025      C1030   1.381   1_655  A
C1025      C1026   1.403       .  A
C1025      O1031   1.319   1_655  A
C1026      C1027   1.402       .  A
C1026      H1037   1.084       .  S
C1027      C1036   1.362       .  A
C1027      C1028   1.381       .  A
C1028      C1029   1.403       .  A
C1028      O1034   1.320       .  A
C1029      C1030   1.403   1_655  A
C1029      H1038   1.084       .  S
C1030      C1033   1.362       .  A
O1031      C1032   1.330       .  A
C1032      C1033   1.391       .  A
C1033      H1039   1.083       .  S
O1034      C1035   1.331       .  A
C1035      C1036   1.391       .  A
C1036      H1040   1.083       .  S
C1041      C1046   1.381       .  A
C1041      C1042   1.406   1_556  A
C1041      O1047   1.322       .  A
C1042      C1043   1.405       .  A
C1042      H1053   1.082       .  S
C1043      C1052   1.365   1_455  A
C1043      C1044   1.381   1_455  A
C1044      C1045   1.403   1_554  A
C1044      O1050   1.319       .  A
C1045      C1046   1.403   1_655  A
C1045      H1054   1.083       .  S
C1046      C1049   1.362       .  A
O1047      C1048   1.331       .  A
C1048      C1049   1.390       .  A
C1049      H1055   1.083       .  S
O1050      C1051   1.330       .  A
C1051      C1052   1.391       .  A
C1052      H1056   1.082       .  S
C1057      C1062   1.380       .  A
C1057      C1058   1.410       .  A
C1057      O1063   1.324       .  A
C1058      C1059   1.409       .  A
C1058      H1069   1.083       .  S
C1059      C1068   1.370       .  A
C1059      C1060   1.381       .  A
C1060      C1061   1.398       .  A
C1060      O1066   1.313       .  A
C1061      C1062   1.397       .  A
C1061      H1070   1.082       .  S
C1062      C1065   1.355       .  A
O1063      C1064   1.335       .  A
C1064      C1065   1.389       .  A
C1065      H1071   1.082       .  S
O1066      C1067   1.328       .  A
C1067      C1068   1.394       .  A
C1068      H1072   1.083       .  S
C1073      C1078   1.382       .  A
C1073      C1074   1.402       .  A
C1073      O1079   1.317       .  A
C1074      C1075   1.401       .  A
C1074      H1085   1.084       .  S
C1075      C1084   1.360       .  A
C1075      C1076   1.382       .  A
C1076      C1077   1.399       .  A
C1076      O1082   1.314       .  A
C1077      C1078   1.397       .  A
C1077      H1086   1.083       .  S
C1078      C1081   1.357       .  A
O1079      C1080   1.329   1_554  A
C1080      C1081   1.386   1_556  A
C1081      H1087   1.083   1_554  S
O1082      C1083   1.327       .  A
C1083      C1084   1.390       .  A
C1084      H1088   1.083       .  S
C1089      C1094   1.382       .  A
C1089      C1090   1.392       .  A
C1089      O1095   1.312       .  A
C1090      C1091   1.393       .  A
C1090      H1101   1.083       .  S
C1091      C1100   1.345       .  A
C1091      C1092   1.382       .  A
C1092      C1093   1.403       .  A
C1092      O1098   1.322       .  A
C1093      C1094   1.404       .  A
C1093      H1102   1.084       .  S
C1094      C1097   1.359       .  A
O1095      C1096   1.325       .  A
C1096      C1097   1.392       .  A
C1097      H1103   1.083       .  S
O1098      C1099   1.331       .  A
C1099      C1100   1.386       .  A
C1100      H1104   1.083       .  S
C1105      C1110   1.380       .  A
C1105      C1106   1.404       .  A
C1105      O1111   1.319       .  A
C1106      C1107   1.403       .  A
C1106      H1117   1.084       .  S
C1107      C1116   1.362       .  A
C1107      C1108   1.380       .  A
C1108      C1109   1.405       .  A
C1108      O1114   1.320       .  A
C1109      C1110   1.404       .  A
C1109      H1118   1.084       .  S
C1110      C1113   1.364       .  A
O1111      C1112   1.332       .  A
C1112      C1113   1.393       .  A
C1113      H1119   1.083       .  S
O1114      C1115   1.332       .  A
C1115      C1116   1.391       .  A
C1116      H1120   1.084       .  S
