geometry optimzed in LAMMPS
_audit_creation_date              2020-12-01 
_audit_creation_method            'lammps2cif' 
_symmetry_space_group_name_H-M    'P1' 
_symmetry_Int_Tables_number       1 
_symmetry_cell_setting            triclinic 
loop_ 
_symmetry_equiv_pos_as_xyz 
  x,y,z 
_cell_length_a                    38.67371871 
_cell_length_b                    38.70377373646973 
_cell_length_c                    51.61746711488446 
_cell_angle_alpha                 89.81209824373575 
_cell_angle_beta                  89.83646024176143 
_cell_angle_gamma                 90.09964930921723 
loop_ 
_atom_site_label 
_atom_site_type_symbol 
_atom_site_fract_x 
_atom_site_fract_y 
_atom_site_fract_z 
_atom_site_charge 
O1          O  0.07009430  0.61982758  0.65916396    -0.81200
O2          O  0.07442921  0.73519858  0.57734478    -0.65900
O3          O  0.06836967  0.68624150  0.64035350    -1.12500
C4          C  0.95462857  0.65580892  0.61857559     1.05700
O5          O  0.02084221  0.73460544  0.56150317    -0.79100
O6          O  0.99437977  0.74095717  0.60991200    -0.66700
Ni7        Ni  0.10362658  0.65415385  0.64934475     1.34900
C8          C  0.99264993  0.73705141  0.63430617     0.84400
O9          O  0.11471859  0.73130898  0.61871634    -0.79600
O10         O  0.13912842  0.68692242  0.64040357    -0.89900
C11         C  0.05212843  0.74510161  0.56103427     0.84000
O12         O  0.10972383  0.63177279  0.61651191    -0.68100
O13         O  0.95565622  0.68218570  0.60372036    -0.87400
C14         C  0.11254248  0.64635899  0.59454561     0.84800
C15         C  0.14085581  0.71638137  0.62915048     1.06400
H16         H  0.03615872  0.66390747  0.58889522     0.38200
O17         O  0.03032291  0.68321523  0.59987854    -1.10000
O18         O  0.00095185  0.70886970  0.64622628    -0.66700
Ni19       Ni  0.02454197  0.66608983  0.63478501     1.26300
O20         O  0.09976007  0.67596585  0.59012691    -0.66900
O21         O  0.98158635  0.64351749  0.62882689    -0.79200
C22         C  0.04672206  0.62644879  0.67574671     0.84200
O23         O  0.02357333  0.64857933  0.66994448    -0.66400
Ni24       Ni  0.99180644  0.70667229  0.58426010     1.27400
Ni25       Ni  0.07216157  0.70922359  0.60845519     1.26100
H26         H  0.06670392  0.70321837  0.65398969     0.38800
O27         O  0.11693260  0.57773420  0.86732842    -0.81200
O28         O  0.21941184  0.58060182  0.95329479    -0.65900
O29         O  0.18253338  0.57319763  0.88631382    -1.12500
C30         C  0.14947319  0.45941718  0.90781441     1.05700
O31         O  0.23156772  0.52553340  0.96207040    -0.79100
O32         O  0.23529781  0.49737445  0.91456820    -0.66700
Ni33       Ni  0.15423380  0.60936716  0.87311722     1.34900
C34         C  0.23105951  0.49569356  0.89027698     0.84400
O35         O  0.22126642  0.62242453  0.91253663    -0.79600
O36         O  0.19062161  0.64234270  0.87842116    -0.89900
C37         C  0.23545290  0.55783078  0.96604515     0.84000
O38         O  0.13172216  0.62621160  0.90380517    -0.68100
O39         O  0.17547224  0.46038850  0.92302922    -0.87400
C40         C  0.13847978  0.62193319  0.92762813     0.84800
C41         C  0.21416207  0.64575477  0.89560719     1.06400
H42         H  0.15687535  0.53768754  0.93695036     0.38200
O43         O  0.17688580  0.53394767  0.92607817    -1.10000
O44         O  0.20300132  0.50505934  0.87876315    -0.66700
Ni45       Ni  0.16086232  0.52935636  0.89101657     1.26300
O46         O  0.16178338  0.60134982  0.93532922    -0.66900
O47         O  0.13797225  0.48625016  0.89662007    -0.79200
C48         C  0.12105382  0.55364929  0.85099206     0.84200
O49         O  0.14276165  0.52978803  0.85611668    -0.66400
Ni50       Ni  0.20186273  0.49612510  0.94111927     1.27400
Ni51       Ni  0.20018551  0.57779739  0.91995874     1.26100
H52         H  0.20182620  0.57058674  0.87455043     0.38800
O53         O  0.44830017  0.90942682  0.65422439    -0.81200
O54         O  0.45170126  0.79961833  0.56968175    -0.65900
O55         O  0.44934666  0.84424367  0.63421611    -1.12500
C56         C  0.56621322  0.87784293  0.61834695     1.05700
O57         O  0.50824094  0.79097604  0.56412886    -0.79100
O58         O  0.54071456  0.79573392  0.60997868    -0.66700
Ni59       Ni  0.41482160  0.87804725  0.64041175     1.34900
C60         C  0.53263620  0.79434017  0.63380785     0.84400
O61         O  0.40508185  0.80235862  0.60789845    -0.79600
O62         O  0.37937030  0.84779319  0.62738801    -0.89900
C63         C  0.47674688  0.78380246  0.55937244     0.84000
O64         O  0.41702903  0.90239387  0.60813321    -0.68100
O65         O  0.56545374  0.85924766  0.59800816    -0.87400
C66         C  0.41602768  0.88907335  0.58578310     0.84800
C67         C  0.37828836  0.81788164  0.61688508     1.06400
H68         H  0.48961945  0.86832280  0.58769742     0.38200
O69         O  0.49365990  0.84762779  0.59774569    -1.10000
O70         O  0.51407736  0.81722696  0.64547541    -0.66700
Ni71       Ni  0.49499432  0.86189117  0.63360283     1.26300
O72         O  0.42661210  0.85856973  0.58170221    -0.66900
O73         O  0.54038397  0.88152210  0.63322639    -0.79200
C74         C  0.46757311  0.90038273  0.67289996     0.84200
O75         O  0.49042714  0.87723916  0.66894716    -0.66400
Ni76       Ni  0.53367116  0.82674281  0.58232399     1.27400
Ni77       Ni  0.44975551  0.82327468  0.60157482     1.26100
H78         H  0.44745391  0.82654545  0.64740178     0.38800
O79         O  0.39849161  0.95696980  0.86549422    -0.81200
O80         O  0.30471247  0.95561765  0.95594389    -0.65900
O81         O  0.33480732  0.96044436  0.88677054    -1.12500
C82         C  0.37115436  0.07534499  0.90577326     1.05700
O83         O  0.28866318  0.01045991  0.96086707    -0.79100
O84         O  0.28702154  0.04494515  0.91578371    -0.66700
Ni85       Ni  0.36263359  0.92457013  0.87301321     1.34900
C86         C  0.28660310  0.04100942  0.89142641     0.84400
O87         O  0.30018321  0.91098209  0.91629317    -0.79600
O88         O  0.32705962  0.89147509  0.88019303    -0.89900
C89         C  0.28632808  0.97847876  0.96666928     0.84000
O90         O  0.38749370  0.90875206  0.90292280    -0.68100
O91         O  0.35000550  0.07393978  0.92479598    -0.87400
C92         C  0.38399360  0.91503747  0.92688257     0.84800
C93         C  0.30524038  0.88794782  0.89869033     1.06400
H94         H  0.36455061  0.99843798  0.93394875     0.38200
O95         O  0.34315077  0.00159069  0.92463808    -1.10000
O96         O  0.31141945  0.02714130  0.87834870    -0.66700
Ni97       Ni  0.35554884  0.00522382  0.88865338     1.26300
O98         O  0.36128417  0.93567530  0.93534030    -0.66900
O99         O  0.37739885  0.04965972  0.89119859    -0.79200
C100        C  0.39233625  0.97914283  0.84799641     0.84200
O101        O  0.37052821  0.00303441  0.85288856    -0.66400
Ni102      Ni  0.32085726  0.03945976  0.94157603     1.27400
Ni103      Ni  0.32062215  0.95683265  0.92142133     1.26100
H104        H  0.31433031  0.96192014  0.87614449     0.38800
O105        O  0.61731803  0.45449932  0.66287473    -0.81200
O106        O  0.72615639  0.45312038  0.57660222    -0.65900
O107        O  0.68274179  0.45559186  0.64185404    -1.12500
C108        C  0.64811660  0.57080784  0.62059972     1.05700
O109        O  0.73653241  0.50912229  0.56988012    -0.79100
O110        O  0.73107288  0.54541424  0.61393415    -0.66700
Ni111      Ni  0.65000354  0.42072809  0.65072955     1.34900
C112        C  0.73209038  0.53881846  0.63799352     0.84400
O113        O  0.72440075  0.40932352  0.61646453    -0.79600
O114        O  0.68087015  0.38464447  0.63916731    -0.89900
C115        C  0.74295009  0.47729919  0.56584336     0.84000
O116        O  0.62503688  0.41778532  0.61889499    -0.68100
O117        O  0.66753575  0.56891170  0.60063448    -0.87400
C118        C  0.63788057  0.41587282  0.59635088     0.84800
C119        C  0.70952655  0.38290340  0.62671517     1.06400
H120        H  0.65849375  0.49222310  0.59351137     0.38200
O121        O  0.67907241  0.49699080  0.60343776    -1.10000
O122        O  0.70878158  0.52132907  0.65024764    -0.66700
Ni123      Ni  0.66445807  0.50093244  0.63902495     1.26300
O124        O  0.66740458  0.42848410  0.59099747    -0.66900
O125        O  0.64424102  0.54595715  0.63640741    -0.79200
C126        C  0.62496721  0.47751167  0.67942211     0.84200
O127        O  0.64861245  0.49945154  0.67423927    -0.66400
Ni128      Ni  0.70039425  0.53598051  0.58657417     1.27400
Ni129      Ni  0.70325386  0.45345409  0.60893793     1.26100
H130        H  0.70080965  0.45536054  0.65478596     0.38800
O131        O  0.57208956  0.41101392  0.87006029    -0.81200
O132        O  0.56982864  0.30186949  0.95428943    -0.65900
O133        O  0.56590513  0.34560881  0.88904384    -1.12500
C134        C  0.45388931  0.38244429  0.90858800     1.05700
O135        O  0.51540286  0.30412225  0.96896828    -0.79100
O136        O  0.48986624  0.29646517  0.92023435    -0.66700
Ni137      Ni  0.60297222  0.37355778  0.87694602     1.34900
C138        C  0.48852360  0.29941640  0.89574800     0.84400
O139        O  0.61125572  0.30096579  0.91293955    -0.79600
O140        O  0.63531227  0.33693141  0.88320499    -0.89900
C141        C  0.54646361  0.29308384  0.97031549     0.84000
O142        O  0.61670058  0.39580345  0.90837982    -0.68100
O143        O  0.45371590  0.35667225  0.92408558    -0.87400
C144        C  0.61475663  0.38575746  0.93174234     0.84800
C145        C  0.63614743  0.31019524  0.89782272     1.06400
H146        H  0.53416778  0.37263887  0.93984884     0.38200
O147        O  0.52789540  0.35304982  0.92927272    -1.10000
O148        O  0.49754898  0.32704520  0.88328092    -0.66700
Ni149      Ni  0.52341473  0.36898426  0.89405660     1.26300
O150        O  0.59698332  0.35964130  0.93855138    -0.66900
O151        O  0.48176252  0.39426991  0.89931217    -0.79200
C152        C  0.54816146  0.40701206  0.85359290     0.84200
O153        O  0.52379765  0.38590983  0.85885663    -0.66400
Ni154      Ni  0.48805273  0.33196796  0.94498309     1.27400
Ni155      Ni  0.56899598  0.32524622  0.92195476     1.26100
H156        H  0.56257188  0.32744256  0.87652883     0.38800
O157        O  0.90199409  0.07511671  0.66337826    -0.81200
O158        O  0.79892327  0.07536901  0.57570414    -0.65900
O159        O  0.83714208  0.07241254  0.64254332    -1.12500
C160        C  0.87402505  0.95827006  0.62255963     1.05700
O161        O  0.78830231  0.01961294  0.56862591    -0.79100
O162        O  0.79024400  0.98467347  0.61415700    -0.66700
Ni163      Ni  0.86802713  0.10816914  0.65278767     1.34900
C164        C  0.78987891  0.98927254  0.63850047     0.84400
O165        O  0.79662070  0.11844914  0.61549104    -0.79600
O166        O  0.83567481  0.14318171  0.64215004    -0.89900
C167        C  0.78311738  0.05155709  0.56399343     0.84000
O168        O  0.89408135  0.11587280  0.62176234    -0.68100
O169        O  0.85377999  0.95946899  0.60312271    -0.87400
C170        C  0.88333458  0.11517844  0.59865531     0.84800
C171        C  0.80895470  0.14461445  0.62758339     1.06400
H172        H  0.86446212  0.03619074  0.59451598     0.38200
O173        O  0.84362292  0.03142466  0.60426712    -1.10000
O174        O  0.81356158  0.00559609  0.65104960    -0.66700
Ni175      Ni  0.85725038  0.02780001  0.64011716     1.26300
O176        O  0.85572045  0.09962003  0.59239428    -0.66900
O177        O  0.87895516  0.98367955  0.63752970    -0.79200
C178        C  0.89545792  0.05238865  0.68044628     0.84200
O179        O  0.87255492  0.02954566  0.67567729    -0.66400
Ni180      Ni  0.82257576  0.99255477  0.58738607     1.27400
Ni181      Ni  0.81885464  0.07460852  0.60895882     1.26100
H182        H  0.81822177  0.07172789  0.65480079     0.38800
O183        O  0.94664616  0.12364883  0.86835777    -0.81200
O184        O  0.94361235  0.23586213  0.95117166    -0.65900
O185        O  0.95007168  0.18966811  0.88719695    -1.12500
C186        C  0.06185294  0.15442599  0.91006708     1.05700
O187        O  0.99685301  0.23219187  0.96771942    -0.79100
O188        O  0.02499793  0.24029849  0.92001259    -0.66700
Ni189      Ni  0.91410452  0.15954325  0.87625194     1.34900
C190        C  0.02766169  0.23737173  0.89560858     0.84400
O191        O  0.90367597  0.23459582  0.90932884    -0.79600
O192        O  0.87972524  0.19427636  0.88324249    -0.89900
C193        C  0.96611136  0.24401762  0.96789371     0.84000
O194        O  0.90349537  0.13658225  0.90833459    -0.68100
O195        O  0.06130591  0.18031062  0.92524449    -0.87400
C196        C  0.90242703  0.14923759  0.93094478     0.84800
C197        C  0.87837229  0.22258260  0.89596914     1.06400
H198        H  0.97983794  0.16403989  0.93870880     0.38200
O199        O  0.98661047  0.18363345  0.92819072    -1.10000
O200        O  0.01872974  0.20997319  0.88296109    -0.66700
Ni201      Ni  0.99292027  0.16760022  0.89327818     1.26300
O202        O  0.91720048  0.17750884  0.93656048    -0.66900
O203        O  0.03465563  0.14298097  0.89966867    -0.79200
C204        C  0.97128293  0.12876761  0.85247739     0.84200
O205        O  0.99449409  0.15085329  0.85815667    -0.66400
Ni206      Ni  0.02556280  0.20472290  0.94484256     1.27400
Ni207      Ni  0.94574998  0.21116655  0.91954044     1.26100
H208        H  0.95307666  0.20728140  0.87409736     0.38800
O209        O  0.79027844  0.51002449  0.06455852    -0.81200
O210        O  0.87177817  0.50097683  0.17381268    -0.65900
O211        O  0.84346668  0.49905778  0.10202318    -1.12500
C212        C  0.80603272  0.38645525  0.12879466     1.05700
O213        O  0.90080869  0.45546876  0.16141598    -0.79100
O214        O  0.89112132  0.41141864  0.12153565    -0.66700
Ni215      Ni  0.82287975  0.53777965  0.08453934     1.34900
C216        C  0.88273576  0.41476088  0.09793733     0.84400
O217        O  0.87870104  0.54720434  0.13520224    -0.79600
O218        O  0.85261907  0.57175314  0.10127400    -0.89900
C219        C  0.89420763  0.47762282  0.17878541     0.84000
O220        O  0.78889862  0.54365199  0.11031998    -0.68100
O221        O  0.83170745  0.38827345  0.14432587    -0.87400
C222        C  0.78787563  0.53912989  0.13467318     0.84800
C223        C  0.87341515  0.57290816  0.12042736     1.06400
H224        H  0.81689363  0.45944069  0.15248505     0.38200
O225        O  0.83623534  0.45833756  0.14062707    -1.10000
O226        O  0.85636508  0.43171330  0.09096635    -0.66700
Ni227      Ni  0.81869142  0.45553392  0.10685744     1.26300
O228        O  0.81228051  0.52484878  0.14798396    -0.66900
O229        O  0.79685294  0.41116394  0.11360435    -0.79200
C230        C  0.78426944  0.47801224  0.06070142     0.84200
O231        O  0.79896859  0.45427270  0.07342054    -0.66400
Ni232      Ni  0.86592754  0.42253081  0.15249937     1.27400
Ni233      Ni  0.85663027  0.50294974  0.13798938     1.26100
H234        H  0.86450089  0.49442224  0.09252849     0.38800
O235        O  0.00642242  0.29654326  0.46832919    -0.81200
O236        O  0.99714641  0.38291951  0.35982428    -0.65900
O237        O  0.99506779  0.34932433  0.43055245    -1.12500
C238        C  0.88196453  0.31733640  0.40660295     1.05700
O239        O  0.95141127  0.41197310  0.37183372    -0.79100
O240        O  0.91673421  0.40253390  0.41650532    -0.66700
Ni241      Ni  0.03403465  0.32499341  0.44487484     1.34900
C242        C  0.91521500  0.38866595  0.43873606     0.84400
O243        O  0.04222066  0.38813735  0.39947757    -0.79600
O244        O  0.06889388  0.35015338  0.42490278    -0.89900
C245        C  0.97336561  0.40456822  0.35441041     0.84000
O246        O  0.03023260  0.29104890  0.41892790    -0.68100
O247        O  0.88278070  0.34710477  0.39574251    -0.87400
C248        C  0.02979587  0.29483832  0.39448527     0.84800
C249        C  0.06933360  0.37649291  0.41001636     1.06400
H250        H  0.95437354  0.32902813  0.37819312     0.38200
O251        O  0.95400618  0.34629630  0.39167053    -1.10000
O252        O  0.92680318  0.35853386  0.44293753    -0.66700
Ni253      Ni  0.95223042  0.32416387  0.42402219     1.26300
O254        O  0.02069046  0.32300104  0.38294694    -0.66900
O255        O  0.90881767  0.30227757  0.41574246    -0.79200
C256        C  0.97467735  0.28819604  0.47065736     0.84200
O257        O  0.95153094  0.29962912  0.45566831    -0.66400
Ni258      Ni  0.91830924  0.37872319  0.38409670     1.27400
Ni259      Ni  0.99852980  0.36601219  0.39524618     1.26100
H260        H  0.99052485  0.36887934  0.44163219     0.38800
O261        O  0.72898204  0.02465548  0.06556736    -0.81200
O262        O  0.64571875  0.02978332  0.17350709    -0.65900
O263        O  0.67472213  0.03396440  0.10220311    -1.12500
C264        C  0.71036947  0.14648915  0.13030806     1.05700
O265        O  0.61619777  0.07553339  0.16196493    -0.79100
O266        O  0.62678175  0.12301915  0.12353800    -0.66700
Ni267      Ni  0.69682203  0.99587498  0.08505715     1.34900
C268        C  0.63435838  0.12025771  0.09969984     0.84400
O269        O  0.63962537  0.98520931  0.13468491    -0.79600
O270        O  0.66806998  0.96083130  0.10180055    -0.89900
C271        C  0.62248860  0.05214869  0.17860663     0.84000
O272        O  0.73062254  0.99060554  0.11077231    -0.68100
O273        O  0.68590994  0.14333767  0.14691111    -0.87400
C274        C  0.73032971  0.99309778  0.13523498     0.84800
C275        C  0.64651456  0.95944837  0.12054302     1.06400
H276        H  0.70083235  0.07246457  0.15267708     0.38200
O277        O  0.68125866  0.07387603  0.14112977    -1.10000
O278        O  0.65952645  0.10189985  0.09192204    -0.66700
Ni279      Ni  0.69813462  0.07805083  0.10717021     1.26300
O280        O  0.70536563  0.00675548  0.14835257    -0.66900
O281        O  0.71893573  0.12279670  0.11409321    -0.79200
C282        C  0.73379617  0.05679675  0.06142359     0.84200
O283        O  0.71750009  0.08008481  0.07353715    -0.66400
Ni284      Ni  0.65146562  0.10887148  0.15407105     1.27400
Ni285      Ni  0.66133997  0.02919567  0.13800580     1.26100
H286        H  0.65373855  0.03814158  0.09259215     0.38800
O287        O  0.51838437  0.23366781  0.46641941    -0.81200
O288        O  0.52771769  0.15111752  0.35758215    -0.65900
O289        O  0.52992038  0.18176721  0.42852523    -1.12500
C290        C  0.64367841  0.21546310  0.40290858     1.05700
O291        O  0.57284316  0.12151342  0.36997830    -0.79100
O292        O  0.61415516  0.13131132  0.41149690    -0.66700
Ni293      Ni  0.49053948  0.20408280  0.44403579     1.34900
C294        C  0.61391492  0.14288797  0.43443645     0.84400
O295        O  0.48275036  0.14414187  0.39632371    -0.79600
O296        O  0.45574188  0.17760785  0.42480664    -0.89900
C297        C  0.55045075  0.12822208  0.35277655     0.84000
O298        O  0.49036091  0.23899811  0.41851342    -0.68100
O299        O  0.64148935  0.18825515  0.38899305    -0.87400
C300        C  0.49207120  0.23719563  0.39399620     0.84800
C301        C  0.45553448  0.15356175  0.40790388     1.06400
H302        H  0.57014845  0.20545591  0.37713323     0.38200
O303        O  0.57089941  0.18707658  0.38977381    -1.10000
O304        O  0.59847935  0.17067509  0.44037717    -0.66700
Ni305      Ni  0.57342407  0.20668887  0.42289621     1.26300
O306        O  0.50367728  0.21059684  0.38162485    -0.66900
O307        O  0.61785182  0.22826440  0.41539332    -0.79200
C308        C  0.55025861  0.24133178  0.46942431     0.84200
O309        O  0.57411897  0.22894431  0.45543456    -0.66400
Ni310      Ni  0.60625962  0.15565733  0.37972032     1.27400
Ni311      Ni  0.52630993  0.16698731  0.39295183     1.26100
H312        H  0.53447089  0.16142733  0.43888308     0.38800
O313        O  0.50321136  0.73820546  0.06029341    -0.81200
O314        O  0.49474854  0.65014809  0.16723323    -0.65900
O315        O  0.49082949  0.68665004  0.09770474    -1.12500
C316        C  0.38001034  0.72067043  0.12453103     1.05700
O317        O  0.44728597  0.62282114  0.15654618    -0.79100
O318        O  0.41179272  0.63587169  0.11298390    -0.66700
Ni319      Ni  0.53059140  0.70944005  0.08321270     1.34900
C320        C  0.40903857  0.65070896  0.09118103     0.84400
O321        O  0.53722307  0.64459023  0.12652976    -0.79600
O322        O  0.56507897  0.68367513  0.10289810    -0.89900
C323        C  0.47128095  0.62817084  0.17275217     0.84000
O324        O  0.52811366  0.74320185  0.10932636    -0.68100
O325        O  0.38109657  0.69116142  0.13570352    -0.87400
C326        C  0.52823938  0.73886156  0.13372848     0.84800
C327        C  0.56481137  0.65651833  0.11689856     1.06400
H328        H  0.45331214  0.70637905  0.15151196     0.38200
O329        O  0.45164383  0.68969453  0.13767518    -1.10000
O330        O  0.42160653  0.68055646  0.08689859    -0.66700
Ni331      Ni  0.44930693  0.71336309  0.10579431     1.26300
O332        O  0.51922619  0.71038657  0.14500571    -0.66900
O333        O  0.40681394  0.73597545  0.11533749    -0.79200
C334        C  0.47231203  0.74944667  0.05918671     0.84200
O335        O  0.44878207  0.74026132  0.07488695    -0.66400
Ni336      Ni  0.41547576  0.65810029  0.14583792     1.27400
Ni337      Ni  0.49498850  0.66849006  0.13239415     1.26100
H338        H  0.48498191  0.66775696  0.08633315     0.38800
O339        O  0.29155575  0.52564642  0.46204833    -0.81200
O340        O  0.37659677  0.53206606  0.35394077    -0.65900
O341        O  0.34593368  0.53624118  0.42515366    -1.12500
C342        C  0.31323059  0.64908659  0.39930498     1.05700
O343        O  0.40670776  0.57792849  0.36471812    -0.79100
O344        O  0.39875265  0.61495158  0.40839766    -0.66700
Ni345      Ni  0.32478663  0.49767223  0.44277163     1.34900
C346        C  0.38626237  0.61596877  0.43109932     0.84400
O347        O  0.38233678  0.48698605  0.39319421    -0.79600
O348        O  0.35471986  0.46318104  0.42679637    -0.89900
C349        C  0.39921636  0.55492565  0.34813827     0.84000
O350        O  0.29184891  0.49133775  0.41656264    -0.68100
O351        O  0.34236657  0.64753577  0.38750831    -0.87400
C352        C  0.29199473  0.49509677  0.39214162     0.84800
C353        C  0.37609124  0.46145789  0.40794936     1.06400
H354        H  0.32356959  0.57558968  0.37279803     0.38200
O355        O  0.34150547  0.57616799  0.38579018    -1.10000
O356        O  0.35629719  0.60447862  0.43623304    -0.66700
Ni357      Ni  0.32075335  0.57917281  0.41857969     1.26300
O358        O  0.31679234  0.50936624  0.37910887    -0.66900
O359        O  0.29884561  0.62273049  0.41002853    -0.79200
C360        C  0.28389725  0.55754979  0.46448697     0.84200
O361        O  0.29769021  0.58095163  0.45080769    -0.66400
Ni362      Ni  0.37371707  0.61150257  0.37653369     1.27400
Ni363      Ni  0.36082312  0.53134496  0.38953955     1.26100
H364        H  0.36639131  0.54159397  0.43506515     0.38800
O365        O  0.02022826  0.80245375  0.05966401    -0.81200
O366        O  0.02647173  0.88429957  0.16998931    -0.65900
O367        O  0.03065616  0.85159890  0.09937891    -1.12500
C368        C  0.14189399  0.81820313  0.12511629     1.05700
O369        O  0.07251251  0.91356493  0.15813106    -0.79100
O370        O  0.10880614  0.90323905  0.11420354    -0.66700
Ni371      Ni  0.99187160  0.82933446  0.08339669     1.34900
C372        C  0.11121299  0.88884479  0.09226863     0.84400
O373        O  0.98271397  0.89008774  0.12999295    -0.79600
O374        O  0.95664706  0.85351660  0.10337759    -0.89900
C375        C  0.04948627  0.90704401  0.17505557     0.84000
O376        O  0.99377564  0.79376353  0.10842503    -0.68100
O377        O  0.14083390  0.84772942  0.13619019    -0.87400
C378        C  0.99357554  0.79593301  0.13300307     0.84800
C379        C  0.95580101  0.87894737  0.11897943     1.06400
H380        H  0.06911938  0.83022027  0.15260277     0.38200
O381        O  0.07001186  0.84742395  0.13899930    -1.10000
O382        O  0.09931004  0.85882680  0.08822878    -0.66700
Ni383      Ni  0.07246171  0.82520896  0.10686149     1.26300
O384        O  0.00279539  0.82342658  0.14559553    -0.66900
O385        O  0.11515884  0.80289742  0.11600751    -0.79200
C386        C  0.05136561  0.79177515  0.05884354     0.84200
O387        O  0.07374175  0.80015962  0.07549762    -0.66400
Ni388      Ni  0.10555515  0.87977872  0.14688645     1.27400
Ni389      Ni  0.02591272  0.86735747  0.13465464     1.26100
H390        H  0.03640073  0.87141501  0.08876951     0.38800
O391        O  0.23522022  0.01134494  0.45824758    -0.81200
O392        O  0.14477367  0.00293050  0.35413792    -0.65900
O393        O  0.17866062  0.00006706  0.42409871    -1.12500
C394        C  0.20701814  0.88613335  0.39936078     1.05700
O395        O  0.11295081  0.95857018  0.36643646    -0.79100
O396        O  0.12283362  0.92325284  0.41164621    -0.66700
Ni397      Ni  0.20103816  0.03893968  0.44018321     1.34900
C398        C  0.13744166  0.92107104  0.43356998     0.84400
O399        O  0.14233170  0.04894794  0.39206601    -0.79600
O400        O  0.17020896  0.07305655  0.42513589    -0.89900
C401        C  0.12064103  0.98131525  0.34946864     0.84000
O402        O  0.23251778  0.04491579  0.41267213    -0.68100
O403        O  0.17683761  0.88808646  0.38924453    -0.87400
C404        C  0.23192172  0.03933759  0.38847147     0.84800
C405        C  0.14862051  0.07442752  0.40657581     1.06400
H406        H  0.19676919  0.95834650  0.37180593     0.38200
O407        O  0.17974703  0.95885097  0.38554324    -1.10000
O408        O  0.16800977  0.93198045  0.43710009    -0.66700
Ni409      Ni  0.20255381  0.95654211  0.41747180     1.26300
O410        O  0.20666538  0.02428798  0.37658881    -0.66900
O411        O  0.22287846  0.91239453  0.40884183    -0.79200
C412        C  0.24291616  0.97955562  0.46093041     0.84200
O413        O  0.22798244  0.95563061  0.44862993    -0.66400
Ni414      Ni  0.14570603  0.92452254  0.37852947     1.27400
Ni415      Ni  0.16229770  0.00418290  0.38893274     1.26100
H416        H  0.15859578  0.99528735  0.43471628     0.38800
C417        C  0.12158828  0.00094092  0.25503041    -0.18100
C418        C  0.11158844  0.98987145  0.23038106    -0.20300
C419        C  0.08451143  0.96595728  0.22746383     0.20400
C420        C  0.06607260  0.95450024  0.24942260    -0.03200
C421        C  0.07618339  0.96572550  0.27437088    -0.06300
C422        C  0.10471416  0.98828368  0.27720585     0.20600
C423        C  0.05908574  0.95276073  0.29650091     0.18800
C424        C  0.03062315  0.93052282  0.29343278    -0.17800
C425        C  0.02060889  0.91942638  0.26871972    -0.20000
C426        C  0.03883717  0.93036827  0.24659430     0.20300
C427        C  0.03160953  0.91627063  0.22196761    -0.33000
C428        C  0.05146895  0.92595876  0.20021309     0.01000
C429        C  0.07686737  0.95196504  0.20312308    -0.24300
C430        C  0.11729053  0.99598236  0.30208274    -0.28900
C431        C  0.10226622  0.98071561  0.32416065     0.06700
C432        C  0.07211827  0.96046036  0.32123631    -0.27600
H433        H  0.14335023  0.01844226  0.25678707     0.11400
H434        H  0.12584972  0.99912156  0.21363596     0.12500
H435        H  0.01689377  0.92065052  0.31022636     0.11600
H436        H  0.99936271  0.90130481  0.26700483     0.10800
H437        H  0.01189908  0.89652019  0.22002762     0.16200
H438        H  0.09214795  0.96018288  0.18656968     0.12100
H439        H  0.14033968  0.01171772  0.30408629     0.15000
H440        H  0.05995931  0.94895612  0.33814260     0.14800
C441        C  0.31003076  0.80936558  0.40415339    -0.18100
C442        C  0.32455134  0.77622217  0.40392681    -0.20300
C443        C  0.30339055  0.74674713  0.40242828     0.20400
C444        C  0.26723399  0.75067526  0.40109404    -0.03200
C445        C  0.25259517  0.78421572  0.40088446    -0.06300
C446        C  0.27407281  0.81373055  0.40260731     0.20600
C447        C  0.21650490  0.78817451  0.39889421     0.18800
C448        C  0.19533984  0.75870031  0.39739839    -0.17800
C449        C  0.20978039  0.72552178  0.39802327    -0.20000
C450        C  0.24571634  0.72113106  0.39985840     0.20300
C451        C  0.26052792  0.68782307  0.40016653    -0.33000
C452        C  0.29666585  0.68375322  0.40083545     0.01000
C453        C  0.31780271  0.71345818  0.40205048    -0.24300
C454        C  0.25926339  0.84701187  0.40261576    -0.28900
C455        C  0.22325629  0.85121102  0.40028319     0.06700
C456        C  0.20216966  0.82149292  0.39841311    -0.27600
H457        H  0.32697571  0.83161779  0.40540888     0.11400
H458        H  0.35240473  0.77364067  0.40497382     0.12500
H459        H  0.16753234  0.76130381  0.39583140     0.11600
H460        H  0.19281614  0.70327175  0.39691809     0.10800
H461        H  0.24406970  0.66517701  0.39909272     0.16200
H462        H  0.34567157  0.71062307  0.40283112     0.12100
H463        H  0.27577308  0.86959501  0.40395422     0.15000
H464        H  0.17436268  0.82424182  0.39682900     0.14800
C465        C  0.26723078  0.83374083  0.11349884    -0.18100
C466        C  0.30083278  0.82041260  0.11304728    -0.20300
C467        C  0.30639368  0.78478574  0.11575082     0.20400
C468        C  0.27761469  0.76228372  0.11781925    -0.03200
C469        C  0.24371982  0.77567612  0.11800631    -0.06300
C470        C  0.23864815  0.81162438  0.11645719     0.20600
C471        C  0.21499019  0.75317160  0.12043834     0.18800
C472        C  0.22046878  0.71742609  0.12196042    -0.17800
C473        C  0.25406617  0.70417427  0.12199837    -0.20000
C474        C  0.28268954  0.72646040  0.12040638     0.20300
C475        C  0.31629459  0.71354944  0.12205917    -0.33000
C476        C  0.34519077  0.73581849  0.12124057     0.01000
C477        C  0.34012261  0.77134380  0.11719061    -0.24300
C478        C  0.20514165  0.82489187  0.11848222    -0.28900
C479        C  0.17647568  0.80276917  0.12176344     0.06700
C480        C  0.18142158  0.76687240  0.12196284    -0.27600
H481        H  0.26362384  0.86142972  0.11197912     0.11400
H482        H  0.32249458  0.83804834  0.11118912     0.12500
H483        H  0.19880369  0.69976636  0.12366016     0.11600
H484        H  0.25768438  0.67650823  0.12375108     0.10800
H485        H  0.31989678  0.68591880  0.12428172     0.16200
H486        H  0.36223463  0.78853956  0.11605743     0.12100
H487        H  0.20134581  0.85263210  0.11763361     0.15000
H488        H  0.15937087  0.74978136  0.12423015     0.14800
C489        C  0.48581088  0.61057919  0.29147044    -0.18100
C490        C  0.49643209  0.62109028  0.26670176    -0.20300
C491        C  0.48017975  0.60785958  0.24457152     0.20400
C492        C  0.45409992  0.58245035  0.24752312    -0.03200
C493        C  0.44325206  0.57193597  0.27255653    -0.06300
C494        C  0.45868139  0.58670328  0.29457328     0.20600
C495        C  0.41581066  0.54800371  0.27552535     0.18800
C496        C  0.40070619  0.53353887  0.25336990    -0.17800
C497        C  0.41153916  0.54381608  0.22860125    -0.20000
C498        C  0.43756888  0.56887346  0.22552166     0.20300
C499        C  0.44585331  0.58202177  0.20092736    -0.33000
C500        C  0.46986054  0.60927001  0.19789860     0.01000
C501        C  0.48806367  0.62100466  0.21973147    -0.24300
C502        C  0.44558101  0.57874241  0.31925662    -0.28900
C503        C  0.41677237  0.55662270  0.32241899     0.06700
C504        C  0.40283366  0.54033983  0.30046439    -0.27600
H505        H  0.49809534  0.62198891  0.30823864     0.11400
H506        H  0.51663891  0.64038138  0.26489118     0.12500
H507        H  0.37980871  0.51500071  0.25518234     0.11600
H508        H  0.39871995  0.53299500  0.21183706     0.10800
H509        H  0.43195365  0.57236320  0.18423173     0.16200
H510        H  0.50662158  0.64185855  0.21765243     0.12100
H511        H  0.45686054  0.59122995  0.33600391     0.15000
H512        H  0.38069399  0.52334986  0.30261378     0.14800
C513        C  0.33049612  0.15890807  0.38578892    -0.18100
C514        C  0.29923549  0.14261820  0.37948141    -0.20300
C515        C  0.29746634  0.10653481  0.37690422     0.20400
C516        C  0.32789969  0.08683214  0.37957712    -0.03200
C517        C  0.35968091  0.10339315  0.38565670    -0.06300
C518        C  0.36076088  0.13951748  0.38945568     0.20600
C519        C  0.39003383  0.08368478  0.38888015     0.18800
C520        C  0.38838660  0.04765360  0.38560556    -0.17800
C521        C  0.35677076  0.03119974  0.38037047    -0.20000
C522        C  0.32618734  0.05045950  0.37776535     0.20300
C523        C  0.29365707  0.03396780  0.37558501    -0.33000
C524        C  0.26284268  0.05341128  0.37504954     0.01000
C525        C  0.26537901  0.08972884  0.37396314    -0.24300
C526        C  0.39183579  0.15554382  0.39729566    -0.28900
C527        C  0.42228398  0.13615169  0.40073197     0.06700
C528        C  0.42122969  0.10025113  0.39586993    -0.27600
H529        H  0.33082741  0.18668238  0.38832749     0.11400
H530        H  0.27612795  0.15819005  0.37752453     0.12500
H531        H  0.41140407  0.03203153  0.38787792     0.11600
H532        H  0.35611688  0.00327932  0.37897695     0.10800
H533        H  0.29205458  0.00608104  0.37731119     0.16200
H534        H  0.24184194  0.10493364  0.37445291     0.12100
H535        H  0.39248884  0.18323490  0.40036184     0.15000
H536        H  0.44455742  0.08507606  0.39818796     0.14800
C537        C  0.37128780  0.33434905  0.39508992    -0.18100
C538        C  0.38733921  0.30283558  0.38932390    -0.20300
C539        C  0.42304392  0.30137358  0.38437925     0.20400
C540        C  0.44248121  0.33224173  0.38414140    -0.03200
C541        C  0.42605650  0.36429178  0.38941557    -0.06300
C542        C  0.39046453  0.36519356  0.39559508     0.20600
C543        C  0.44545342  0.39521646  0.38935745     0.18800
C544        C  0.48107318  0.39374429  0.38390570    -0.17800
C545        C  0.49753255  0.36191004  0.37967666    -0.20000
C546        C  0.47860689  0.33087239  0.38015074     0.20300
C547        C  0.49538357  0.29845851  0.37882676    -0.33000
C548        C  0.47634800  0.26744672  0.38087317     0.01000
C549        C  0.43998423  0.26937205  0.38190684    -0.24300
C550        C  0.37474396  0.39677879  0.40242453    -0.28900
C551        C  0.39373456  0.42789223  0.40226272     0.06700
C552        C  0.42902275  0.42687807  0.39519138    -0.27600
H553        H  0.34389025  0.33450879  0.39952710     0.11400
H554        H  0.37199761  0.27938240  0.38966183     0.12500
H555        H  0.49645167  0.41716610  0.38367667     0.11600
H556        H  0.52524303  0.36152553  0.37654928     0.10800
H557        H  0.52339425  0.29737082  0.37886618     0.16200
H558        H  0.42520468  0.24572151  0.38435122     0.12100
H559        H  0.34746264  0.39731288  0.40730620     0.15000
H560        H  0.44385333  0.45066599  0.39482646     0.14800
C561        C  0.82827655  0.87307468  0.12796778    -0.18100
C562        C  0.79646271  0.88862422  0.13353821    -0.20300
C563        C  0.79479128  0.92362790  0.14054171     0.20400
C564        C  0.82557276  0.94299441  0.14245014    -0.03200
C565        C  0.85785109  0.92711364  0.13713962    -0.06300
C566        C  0.85910623  0.89211574  0.12950747     0.20600
C567        C  0.88870654  0.94646087  0.13880414     0.18800
C568        C  0.88695343  0.98152139  0.14572143    -0.17800
C569        C  0.85492523  0.99747344  0.15023772    -0.20000
C570        C  0.82397218  0.97856938  0.14842829     0.20300
C571        C  0.79146086  0.99501597  0.15059879    -0.33000
C572        C  0.76059569  0.97615769  0.14729236     0.01000
C573        C  0.76271863  0.94011254  0.14375654    -0.24300
C574        C  0.89104287  0.87682447  0.12328106    -0.28900
C575        C  0.92204675  0.89574631  0.12505422     0.06700
C576        C  0.92062491  0.93054185  0.13314515    -0.27600
H577        H  0.82872280  0.84618779  0.12218943     0.11400
H578        H  0.77302860  0.87344721  0.13173167     0.12500
H579        H  0.91034553  0.99684269  0.14709564     0.11600
H580        H  0.85434664  0.02477954  0.15476537     0.10800
H581        H  0.79023046  0.02289719  0.15229375     0.16200
H582        H  0.73917585  0.92562018  0.14017082     0.12100
H583        H  0.89182010  0.84997516  0.11738051     0.15000
H584        H  0.94431095  0.94543462  0.13452955     0.14800
C585        C  0.63218933  0.80363541  0.14921460    -0.18100
C586        C  0.64944711  0.83476386  0.14381283    -0.20300
C587        C  0.63074697  0.86514615  0.13878859     0.20400
C588        C  0.59429548  0.86442328  0.14057655    -0.03200
C589        C  0.57685653  0.83293459  0.14590648    -0.06300
C590        C  0.59587974  0.80222322  0.14959091     0.20600
C591        C  0.54036685  0.83178408  0.14577387     0.18800
C592        C  0.52167866  0.86243684  0.14195137    -0.17800
C593        C  0.53891292  0.89370222  0.13727428    -0.20000
C594        C  0.57516101  0.89484927  0.13596348     0.20300
C595        C  0.59251369  0.92569851  0.12954602    -0.33000
C596        C  0.62868518  0.92637758  0.12668892     0.01000
C597        C  0.64770259  0.89602849  0.13152719    -0.24300
C598        C  0.57834210  0.77032304  0.15113755    -0.28900
C599        C  0.54220377  0.76868327  0.14805423     0.06700
C600        C  0.52330180  0.79968554  0.14705561    -0.27600
H601        H  0.64725756  0.78036867  0.15210589     0.11400
H602        H  0.67744017  0.83486489  0.14290414     0.12500
H603        H  0.49366519  0.86206068  0.14180563     0.11600
H604        H  0.52381777  0.91682679  0.13388305     0.10800
H605        H  0.57783097  0.94911916  0.12617501     0.16200
H606        H  0.67566416  0.89663919  0.12999335     0.12100
H607        H  0.59312782  0.74652867  0.15115696     0.15000
H608        H  0.49558728  0.79856297  0.14398533     0.14800
C609        C  0.52595665  0.12027032  0.25860197    -0.18100
C610        C  0.53591595  0.10866648  0.23401685    -0.20300
C611        C  0.56280847  0.08457401  0.23127234     0.20400
C612        C  0.57870150  0.07075450  0.25351069    -0.03200
C613        C  0.56849955  0.08232260  0.27833144    -0.06300
C614        C  0.54256479  0.10783173  0.28089202     0.20600
C615        C  0.58543501  0.06955714  0.30047754     0.18800
C616        C  0.61145229  0.04454568  0.29780399    -0.17800
C617        C  0.62169554  0.03327697  0.27324042    -0.20000
C618        C  0.60600811  0.04672096  0.25092508     0.20300
C619        C  0.61850146  0.03814509  0.22614103    -0.33000
C620        C  0.60437883  0.05377237  0.20397475     0.01000
C621        C  0.57546437  0.07567764  0.20669899    -0.24300
C622        C  0.53490499  0.12154867  0.30551231    -0.28900
C623        C  0.55303290  0.11010237  0.32750612     0.06700
C624        C  0.57730795  0.08317732  0.32482624    -0.27600
H625        H  0.50588746  0.13966247  0.26012494     0.11400
H626        H  0.52333665  0.11940761  0.21708513     0.12500
H627        H  0.62462649  0.03444081  0.31469960     0.11600
H628        H  0.64257790  0.01476698  0.27167878     0.10800
H629        H  0.64069231  0.02125742  0.22424878     0.16200
H630        H  0.56406692  0.08754444  0.18969787     0.12100
H631        H  0.51618720  0.14221732  0.30733855     0.15000
H632        H  0.59126480  0.07383499  0.34162626     0.14800
C633        C  0.15140660  0.20057265  0.39050051    -0.18100
C634        C  0.13453470  0.23166865  0.38486255    -0.20300
C635        C  0.09852604  0.23246285  0.38154273     0.20400
C636        C  0.07951763  0.20134880  0.38269988    -0.03200
C637        C  0.09669592  0.16977500  0.38785602    -0.06300
C638        C  0.13267426  0.16957715  0.39251415     0.20600
C639        C  0.07769754  0.13865878  0.38931834     0.18800
C640        C  0.04177153  0.13938915  0.38534680    -0.17800
C641        C  0.02460605  0.17082768  0.38124871    -0.20000
C642        C  0.04314521  0.20206390  0.38037379     0.20300
C643        C  0.02588896  0.23411956  0.37950066    -0.33000
C644        C  0.04466904  0.26530755  0.38040497     0.01000
C645        C  0.08098628  0.26410332  0.37947524    -0.24300
C646        C  0.14919601  0.13852980  0.39944890    -0.28900
C647        C  0.13048475  0.10739041  0.40091298     0.06700
C648        C  0.09485752  0.10755642  0.39525930    -0.27600
H649        H  0.17907289  0.20087625  0.39373852     0.11400
H650        H  0.14951157  0.25534164  0.38410596     0.12500
H651        H  0.02676423  0.11574993  0.38627039     0.11600
H652        H  0.99670874  0.17078317  0.37937569     0.10800
H653        H  0.99792211  0.23484222  0.38096429     0.16200
H654        H  0.09552253  0.28801880  0.38098600     0.12100
H655        H  0.17677607  0.13840470  0.40318068     0.15000
H656        H  0.08038678  0.08355951  0.39611261     0.14800
C657        C  0.16750315  0.50085759  0.38875508    -0.18100
C658        C  0.13623601  0.48384700  0.39401977    -0.20300
C659        C  0.13495296  0.44764901  0.39583185     0.20400
C660        C  0.16548266  0.42838590  0.39204179    -0.03200
C661        C  0.19695646  0.44556356  0.38612570    -0.06300
C662        C  0.19805529  0.48200982  0.38483279     0.20600
C663        C  0.22759444  0.42636688  0.38270852     0.18800
C664        C  0.22642689  0.39018844  0.38495702    -0.17800
C665        C  0.19534799  0.37321739  0.39096310    -0.20000
C666        C  0.16473928  0.39204782  0.39471885     0.20300
C667        C  0.13348936  0.37524712  0.40120120    -0.33000
C668        C  0.10273718  0.39422950  0.40439097     0.01000
C669        C  0.10375541  0.43043659  0.40155730    -0.24300
C670        C  0.23003186  0.49901577  0.38159554    -0.28900
C671        C  0.26101495  0.48013324  0.37991816     0.06700
C672        C  0.25925409  0.44377439  0.37909818    -0.27600
H673        H  0.16786609  0.52883950  0.38809364     0.11400
H674        H  0.11310387  0.49907670  0.39705069     0.12500
H675        H  0.24975311  0.37502909  0.38263142     0.11600
H676        H  0.19532815  0.34533249  0.39289810     0.10800
H677        H  0.13290375  0.34735571  0.40320453     0.16200
H678        H  0.08026271  0.44527464  0.40420759     0.12100
H679        H  0.23126762  0.52690633  0.38336317     0.15000
H680        H  0.28309809  0.42904152  0.37895182     0.14800
C681        C  0.77027817  0.20367987  0.39368418    -0.18100
C682        C  0.80379336  0.21725212  0.39491819    -0.20300
C683        C  0.80919850  0.25162384  0.40243415     0.20400
C684        C  0.78043118  0.27236064  0.40910466    -0.03200
C685        C  0.74657002  0.25853029  0.40810461    -0.06300
C686        C  0.74155851  0.22416880  0.40009920     0.20600
C687        C  0.71776934  0.27915777  0.41486885     0.18800
C688        C  0.72326816  0.31342416  0.42269596    -0.17800
C689        C  0.75675595  0.32728356  0.42334539    -0.20000
C690        C  0.78543047  0.30705622  0.41639090     0.20300
C691        C  0.81892330  0.32108603  0.41609096    -0.33000
C692        C  0.84762499  0.30077297  0.40904878     0.01000
C693        C  0.84271856  0.26583570  0.40283924    -0.24300
C694        C  0.70792416  0.21086291  0.39848472    -0.28900
C695        C  0.67881522  0.23117028  0.40493007     0.06700
C696        C  0.68406115  0.26525602  0.41348538    -0.27600
H697        H  0.76680365  0.17714431  0.38757703     0.11400
H698        H  0.82546702  0.20096167  0.38970508     0.12500
H699        H  0.70161356  0.32965291  0.42805251     0.11600
H700        H  0.76020789  0.35394938  0.42913214     0.10800
H701        H  0.82272218  0.34801069  0.42113103     0.16200
H702        H  0.86475433  0.25021682  0.39727848     0.12100
H703        H  0.70450739  0.18431970  0.39234054     0.15000
H704        H  0.66200043  0.28105286  0.41866675     0.14800
C705        C  0.87128890  0.69896068  0.13832955    -0.18100
C706        C  0.88839250  0.73016311  0.14350780    -0.20300
C707        C  0.92461248  0.73134770  0.14540680     0.20400
C708        C  0.94362095  0.70039504  0.14322759    -0.03200
C709        C  0.92623011  0.66865831  0.13848136    -0.06300
C710        C  0.88997078  0.66813542  0.13530057     0.20600
C711        C  0.94522729  0.63771563  0.13601152     0.18800
C712        C  0.98140088  0.63881078  0.13850065    -0.17800
C713        C  0.99865982  0.67035306  0.14226385    -0.20000
C714        C  0.98008550  0.70143102  0.14427105     0.20300
C715        C  0.99729356  0.73366681  0.14529685    -0.33000
C716        C  0.97853107  0.76491219  0.14579820     0.01000
C717        C  0.94217347  0.76321542  0.14731348    -0.24300
C718        C  0.87311524  0.63698433  0.12877121    -0.28900
C719        C  0.89180114  0.60594825  0.12628731     0.06700
C720        C  0.92781264  0.60645696  0.13053844    -0.27600
H721        H  0.84341906  0.69906317  0.13625766     0.11400
H722        H  0.87332148  0.75363537  0.14511920     0.12500
H723        H  0.99648409  0.61536689  0.13674848     0.11600
H724        H  0.02664899  0.67050728  0.14309073     0.10800
H725        H  0.02518033  0.73461141  0.14316550     0.16200
H726        H  0.92744976  0.78703463  0.14667408     0.12100
H727        H  0.84532590  0.63671692  0.12604045     0.15000
H728        H  0.94236924  0.58265455  0.12885148     0.14800
C729        C  0.68939022  0.65967795  0.13938187    -0.18100
C730        C  0.72044850  0.64273050  0.14511025    -0.20300
C731        C  0.72197728  0.60647617  0.14583746     0.20400
C732        C  0.69157443  0.58714242  0.14155184    -0.03200
C733        C  0.66007565  0.60430275  0.13594531    -0.06300
C734        C  0.65915853  0.64073964  0.13438894     0.20600
C735        C  0.62979610  0.58498154  0.13114394     0.18800
C736        C  0.63126877  0.54872648  0.13205822    -0.17800
C737        C  0.66260494  0.53175922  0.13696754    -0.20000
C738        C  0.69302225  0.55068644  0.14149386     0.20300
C739        C  0.72522372  0.53393267  0.14400511    -0.28200
C740        C  0.75602714  0.55311540  0.14655281     0.01000
C741        C  0.75381921  0.58931434  0.14875836    -0.24300
C742        C  0.62820130  0.65757119  0.12757721    -0.28900
C743        C  0.59782211  0.63853807  0.12293858     0.06700
C744        C  0.59877226  0.60222773  0.12512261    -0.27600
H745        H  0.68915464  0.68764921  0.13845940     0.11400
H746        H  0.74354384  0.65801447  0.14826731     0.12500
H747        H  0.60830872  0.53343907  0.12840120     0.11600
H748        H  0.66316520  0.50377416  0.13675617     0.10800
H749        H  0.72676814  0.50621900  0.14120971     0.16200
H750        H  0.77747986  0.60436133  0.14961495     0.12100
H751        H  0.62755767  0.68553570  0.12632927     0.15000
H752        H  0.57546845  0.58737025  0.12160646     0.14800
C753        C  0.76308163  0.28429297  0.17599282    -0.18100
C754        C  0.75135114  0.25009690  0.17622303    -0.20300
C755        C  0.74561413  0.23247644  0.15290500     0.20400
C756        C  0.75131324  0.24960761  0.12908963    -0.03200
C757        C  0.76235394  0.28448353  0.12886120    -0.06300
C758        C  0.76871453  0.30166328  0.15244354     0.20600
C759        C  0.76743839  0.30199176  0.10508684     0.18800
C760        C  0.76146597  0.28432171  0.08178672    -0.17800
C761        C  0.75094889  0.24961466  0.08201005    -0.20000
C762        C  0.74589582  0.23194894  0.10553978     0.20300
C763        C  0.73486104  0.19722587  0.10598187    -0.33000
C764        C  0.72818773  0.18038373  0.12968452     0.01000
C765        C  0.73376793  0.19820652  0.15302123    -0.24300
C766        C  0.78136475  0.33563583  0.15209693    -0.28900
C767        C  0.78710968  0.35314380  0.12854440     0.06700
C768        C  0.77930904  0.33647076  0.10507795    -0.27600
H769        H  0.76777110  0.29716697  0.19426238     0.11400
H770        H  0.74699698  0.23733755  0.19466632     0.12500
H771        H  0.76526085  0.29725685  0.06334848     0.11600
H772        H  0.74668938  0.23659469  0.06374173     0.10800
H773        H  0.72979003  0.18388243  0.08794505     0.16200
H774        H  0.72831376  0.18546255  0.17133075     0.12100
H775        H  0.78750409  0.34833307  0.17021575     0.15000
H776        H  0.78429508  0.34963699  0.08687045     0.14800
C777        C  0.89854409  0.49636921  0.27395195    -0.18100
C778        C  0.91009824  0.48595798  0.29844012    -0.20300
C779        C  0.93527682  0.46005013  0.30094659     0.20400
C780        C  0.94965824  0.44505481  0.27858746    -0.03200
C781        C  0.93806647  0.45571332  0.25379371    -0.06300
C782        C  0.91201026  0.48116960  0.25145733     0.20600
C783        C  0.95172409  0.44009897  0.23142327     0.18800
C784        C  0.97735757  0.41458803  0.23392995    -0.17800
C785        C  0.98869225  0.40392512  0.25846867    -0.20000
C786        C  0.97474156  0.41866038  0.28101175     0.20300
C787        C  0.98438567  0.40665133  0.30586189    -0.33000
C788        C  0.96903592  0.42064847  0.32827493     0.01000
C789        C  0.94526345  0.44804751  0.32546772    -0.24300
C790        C  0.89896893  0.49002807  0.22680956    -0.28900
C791        C  0.91146937  0.47351882  0.20444986     0.06700
C792        C  0.93860709  0.44928786  0.20700571    -0.27600
H793        H  0.87860595  0.51592034  0.27263730     0.11400
H794        H  0.89879443  0.49772527  0.31548693     0.12500
H795        H  0.98816111  0.40234166  0.21689046     0.11600
H796        H  0.00796154  0.38371518  0.25980899     0.10800
H797        H  0.00248545  0.38543681  0.30768005     0.16200
H798        H  0.93328381  0.45925435  0.34248440     0.12100
H799        H  0.87807390  0.50852665  0.22517292     0.15000
H800        H  0.94871895  0.43642127  0.18997570     0.14800
C801        C  0.88527699  0.37010945  0.00922927    -0.18100
C802        C  0.89503078  0.34440085  0.99177592    -0.20300
C803        C  0.92085014  0.32055318  0.99836352     0.20400
C804        C  0.93769438  0.32313253  0.02247511    -0.03200
C805        C  0.92742947  0.34881667  0.04031088    -0.06300
C806        C  0.90087688  0.37210937  0.03367901     0.20600
C807        C  0.94283134  0.35040637  0.06504388     0.18800
C808        C  0.96964866  0.32734823  0.07114350    -0.17800
C809        C  0.98038533  0.30235809  0.05321565    -0.20000
C810        C  0.96417991  0.29960241  0.02897736     0.20300
C811        C  0.97362493  0.27358810  0.01124849    -0.33000
C812        C  0.95614617  0.27030509  0.98745964     0.01000
C813        C  0.92986157  0.29405166  0.98126575    -0.24300
C814        C  0.88902833  0.39586192  0.05201621    -0.28900
C815        C  0.90215284  0.39589634  0.07746197     0.06700
C816        C  0.92999963  0.37386422  0.08355909    -0.27600
H817        H  0.86485377  0.38786162  0.00386350     0.11400
H818        H  0.88207255  0.34291437  0.97322502     0.12500
H819        H  0.98196813  0.32827107  0.08995337     0.11600
H820        H  0.00089126  0.28469434  0.05853728     0.10800
H821        H  0.99413791  0.25566979  0.01608676     0.16200
H822        H  0.91673297  0.29235007  0.96277402     0.12100
H823        H  0.86777591  0.41275104  0.04686054     0.15000
H824        H  0.94049094  0.37370977  0.10300632     0.14800
C825        C  0.81289341  0.14723802  0.02997927    -0.18100
C826        C  0.83700213  0.15978968  0.01212488    -0.20300
C827        C  0.84791501  0.13912812  0.99140048     0.20400
C828        C  0.83479659  0.10532364  0.98872597    -0.03200
C829        C  0.81057648  0.09250109  0.00693789    -0.06300
C830        C  0.79938291  0.11379189  0.02742664     0.20600
C831        C  0.79719504  0.05870596  0.00444634     0.18800
C832        C  0.80845310  0.03802785  0.98374583    -0.17800
C833        C  0.83214037  0.05094602  0.96544487    -0.20000
C834        C  0.84534976  0.08466744  0.96763975     0.20300
C835        C  0.86833544  0.09841347  0.94895994    -0.33000
C836        C  0.88123259  0.13235172  0.95147601     0.01000
C837        C  0.87116658  0.15214784  0.97304224    -0.24300
C838        C  0.77446651  0.10160033  0.04486001    -0.28900
C839        C  0.76039184  0.06822958  0.04242263     0.06700
C840        C  0.77242991  0.04655646  0.02244003    -0.27600
H841        H  0.80456532  0.16382983  0.04567050     0.11400
H842        H  0.84682410  0.18584812  0.01435852     0.12500
H843        H  0.79856261  0.01200681  0.98149139     0.11600
H844        H  0.83995810  0.03461321  0.94946817     0.10800
H845        H  0.87575780  0.08297146  0.93237919     0.16200
H846        H  0.88040092  0.17846278  0.97511447     0.12100
H847        H  0.76605010  0.11827507  0.06049635     0.15000
H848        H  0.76200507  0.02067781  0.02055558     0.14800
C849        C  0.91590212  0.04024912  0.79904614    -0.18100
C850        C  0.90433549  0.02946446  0.77471343    -0.20300
C851        C  0.91701753  0.04520182  0.75208466     0.20400
C852        C  0.94293698  0.07092560  0.75405944    -0.03200
C853        C  0.95445557  0.08199262  0.77864031    -0.06300
C854        C  0.94020468  0.06708887  0.80117677     0.20600
C855        C  0.97871876  0.10926818  0.78066595     0.18800
C856        C  0.99268237  0.12381597  0.75799548    -0.17800
C857        C  0.98147963  0.11267471  0.73364488    -0.20000
C858        C  0.95599514  0.08692511  0.73155267     0.20300
C859        C  0.94200744  0.07832149  0.70743933    -0.33000
C860        C  0.91437933  0.05459106  0.70538441     0.01000
C861        C  0.90293381  0.03707944  0.72770495    -0.24300
C862        C  0.94877654  0.08069723  0.82541922    -0.28900
C863        C  0.97067178  0.10970042  0.82757922     0.06700
C864        C  0.98687230  0.12287434  0.80520115    -0.27600
H865        H  0.90487723  0.02843605  0.81625097     0.11400
H866        H  0.88467539  0.00954797  0.77364004     0.12500
H867        H  0.01145630  0.14456870  0.75908824     0.11600
H868        H  0.99188284  0.12506583  0.71644800     0.10800
H869        H  0.95147131  0.09168925  0.69033644     0.16200
H870        H  0.88181647  0.01872972  0.72633623     0.12100
H871        H  0.93653163  0.07001361  0.84259411     0.15000
H872        H  0.00376798  0.14515764  0.80666450     0.14800
C873        C  0.97997783  0.19090617  0.56801398    -0.18100
C874        C  0.99244185  0.21592951  0.55049441    -0.20300
C875        C  0.97231258  0.22655251  0.52926077     0.20400
C876        C  0.93941829  0.21138262  0.52568037    -0.03200
C877        C  0.92717114  0.18571548  0.54300755    -0.06300
C878        C  0.94730855  0.17562483  0.56449322     0.20600
C879        C  0.89444815  0.17054794  0.53896799     0.18800
C880        C  0.87410537  0.18115978  0.51798804    -0.17800
C881        C  0.88599103  0.20673997  0.50110398    -0.20000
C882        C  0.91852662  0.22193264  0.50480495     0.20300
C883        C  0.93035865  0.24742004  0.48778006    -0.33000
C884        C  0.96322698  0.26265576  0.49067597     0.01000
C885        C  0.98427212  0.25193842  0.51153269    -0.24300
C886        C  0.93395300  0.15115106  0.58229284    -0.28900
C887        C  0.90101780  0.13624998  0.57841632     0.06700
C888        C  0.88199705  0.14568379  0.55631043    -0.27600
H889        H  0.99589156  0.18355692  0.58436275     0.11400
H890        H  0.01773670  0.22717750  0.55368719     0.12500
H891        H  0.84881684  0.16988574  0.51476440     0.11600
H892        H  0.86970403  0.21464091  0.48510084     0.10800
H893        H  0.91388024  0.25486378  0.47175251     0.16200
H894        H  0.00966741  0.26331557  0.51399539     0.12100
H895        H  0.94872704  0.14437109  0.59937364     0.15000
H896        H  0.85638836  0.13503433  0.55322042     0.14800
C897        C  0.69266039  0.13373480  0.53845037    -0.18100
C898        C  0.66830833  0.14596684  0.52071842    -0.20300
C899        C  0.66324669  0.12895909  0.49705397     0.20400
C900        C  0.68301768  0.09940657  0.49113077    -0.03200
C901        C  0.70752929  0.08689989  0.50913293    -0.06300
C902        C  0.71231182  0.10424502  0.53283896     0.20600
C903        C  0.72736022  0.05724477  0.50335972     0.18800
C904        C  0.72282759  0.04081505  0.47939060    -0.17800
C905        C  0.69876585  0.05343458  0.46143295    -0.20000
C906        C  0.67857799  0.08260389  0.46714755     0.20300
C907        C  0.65458144  0.09568387  0.44913183    -0.33000
C908        C  0.63491027  0.12540226  0.45479402     0.01000
C909        C  0.63924533  0.14149952  0.47903939    -0.24300
C910        C  0.73686092  0.09202752  0.55047272    -0.28900
C911        C  0.75662323  0.06242232  0.54503426     0.06700
C912        C  0.75152457  0.04484637  0.52154899    -0.27600
H913        H  0.69615955  0.14738246  0.55656011     0.11400
H914        H  0.65352369  0.16885517  0.52547277     0.12500
H915        H  0.73798583  0.01823836  0.47448137     0.11600
H916        H  0.69594023  0.04033811  0.44304125     0.10800
H917        H  0.65198730  0.08330879  0.43043299     0.16200
H918        H  0.62484154  0.16470976  0.48361320     0.12100
H919        H  0.74054830  0.10556460  0.56863347     0.15000
H920        H  0.76693430  0.02221959  0.51719300     0.14800
C921        C  0.69796027  0.47709503  0.95861604    -0.18100
C922        C  0.72207043  0.48983712  0.97649586    -0.20300
C923        C  0.72725141  0.47300680  0.00033218     0.20400
C924        C  0.70751637  0.44321336  0.00622211    -0.03200
C925        C  0.68286753  0.43065480  0.98834925    -0.06300
C926        C  0.67831113  0.44742183  0.96428595     0.20600
C927        C  0.66327273  0.40090763  0.99441044     0.18800
C928        C  0.66824083  0.38407046  0.01821081    -0.17800
C929        C  0.69282195  0.39625304  0.03574208    -0.20000
C930        C  0.71269185  0.42562593  0.02985226     0.20300
C931        C  0.73785188  0.43744448  0.04714986    -0.33000
C932        C  0.75776975  0.46705860  0.04159117     0.01000
C933        C  0.75198712  0.48509401  0.01825756    -0.24300
C934        C  0.65487758  0.43369144  0.94613303    -0.28900
C935        C  0.63577822  0.40350021  0.95185699     0.06700
C936        C  0.63971814  0.38784173  0.97633968    -0.27600
H937        H  0.69484581  0.49035393  0.94025400     0.11400
H938        H  0.73694423  0.51267892  0.97154697     0.12500
H939        H  0.65342648  0.36116663  0.02312956     0.11600
H940        H  0.69645308  0.38254549  0.05386889     0.10800
H941        H  0.74176744  0.42363391  0.06522370     0.16200
H942        H  0.76723890  0.50788469  0.01381970     0.12100
H943        H  0.65219539  0.44598648  0.92735212     0.15000
H944        H  0.62548913  0.36447196  0.98103135     0.14800
C945        C  0.62859056  0.16737045  0.01106167    -0.18100
C946        C  0.61755811  0.19261392  0.99356987    -0.20300
C947        C  0.59223081  0.21665281  0.00078251     0.20400
C948        C  0.57732063  0.21492761  0.02569409    -0.03200
C949        C  0.58885267  0.18956839  0.04356950    -0.06300
C950        C  0.61471985  0.16587143  0.03617510     0.20600
C951        C  0.57517493  0.18843929  0.06892720     0.18800
C952        C  0.54914080  0.21208696  0.07581113    -0.17800
C953        C  0.53722605  0.23682462  0.05791777    -0.20000
C954        C  0.55139003  0.23880695  0.03282426     0.20300
C955        C  0.54056263  0.26433426  0.01483449    -0.33000
C956        C  0.55629826  0.26674126  0.99016788     0.01000
C957        C  0.58192234  0.24252150  0.98346523    -0.24300
C958        C  0.62727493  0.14179582  0.05418102    -0.28900
C959        C  0.61525642  0.14132576  0.07998460     0.06700
C960        C  0.58856475  0.16445052  0.08705451    -0.27600
H961        H  0.64847670  0.14937127  0.00507544     0.11400
H962        H  0.62909162  0.19352009  0.97442135     0.12500
H963        H  0.53816308  0.21165632  0.09514280     0.11600
H964        H  0.51727848  0.25477032  0.06386391     0.10800
H965        H  0.52062142  0.28263363  0.02017581     0.16200
H966        H  0.59372783  0.24350300  0.96438991     0.12100
H967        H  0.64782860  0.12447667  0.04829649     0.15000
H968        H  0.57907454  0.16464365  0.10682623     0.14800
C969        C  0.77217119  0.25638381  0.84972979    -0.18100
C970        C  0.73734803  0.26622061  0.85011905    -0.20300
C971        C  0.72052404  0.27300719  0.87369681     0.20400
C972        C  0.73903717  0.26997459  0.89712148    -0.03200
C973        C  0.77449719  0.26094950  0.89667289    -0.06300
C974        C  0.79099039  0.25374165  0.87287506     0.20600
C975        C  0.79333455  0.25885571  0.92003214     0.18800
C976        C  0.77641267  0.26549724  0.94360066    -0.17800
C977        C  0.74121247  0.27406006  0.94406769    -0.20000
C978        C  0.72226577  0.27641562  0.92096167     0.20300
C979        C  0.68722358  0.28626294  0.92119897    -0.33000
C980        C  0.66912655  0.29088534  0.89785788     0.01000
C981        C  0.68585799  0.28381500  0.87421409    -0.24300
C982        C  0.82573905  0.24319167  0.87269798    -0.28900
C983        C  0.84458916  0.24055816  0.89591027     0.06700
C984        C  0.82843836  0.24919895  0.91946074    -0.27600
H985        H  0.78443211  0.25095408  0.83128900     0.11400
H986        H  0.72354448  0.26846811  0.83195428     0.12500
H987        H  0.79037421  0.26386961  0.96173044     0.11600
H988        H  0.72885430  0.27911327  0.96253119     0.10800
H989        H  0.67472906  0.29265606  0.93939391     0.16200
H990        H  0.67215215  0.28793082  0.85616676     0.12100
H991        H  0.83796209  0.23610112  0.85454710     0.15000
H992        H  0.84258309  0.24632836  0.93744806     0.14800
C993        C  0.69408304  0.25642646  0.62019763    -0.18100
C994        C  0.70767128  0.22289341  0.61982331    -0.20300
C995        C  0.74355002  0.21760625  0.62047041     0.20400
C996        C  0.76591309  0.24659304  0.62061646    -0.03200
C997        C  0.75220319  0.28045967  0.62060801    -0.06300
C998        C  0.71612485  0.28531438  0.62096413     0.20600
C999        C  0.77459757  0.30940682  0.62087381     0.18800
C1000       C  0.81048297  0.30413984  0.62067761    -0.17800
C1001       C  0.82404963  0.27063723  0.62106719    -0.20000
C1002       C  0.80197988  0.24178412  0.62142331     0.20300
C1003       C  0.81536975  0.20825841  0.62322201    -0.33000
C1004       C  0.79334718  0.17922795  0.62393580     0.01000
C1005       C  0.75745474  0.18398317  0.62170597    -0.24300
C1006       C  0.70272237  0.31891630  0.62262893    -0.28900
C1007       C  0.72480615  0.34795112  0.62358224     0.06700
C1008       C  0.76074397  0.34301372  0.62197106    -0.27600
H1009       H  0.66627126  0.25975860  0.62022884     0.11400
H1010       H  0.69008084  0.20107715  0.61957176     0.12500
H1011       H  0.82808383  0.32594965  0.62074698     0.11600
H1012       H  0.85185596  0.26729566  0.62145725     0.10800
H1013       H  0.84314678  0.20470682  0.62427835     0.16200
H1014       H  0.74041144  0.16171640  0.62200274     0.12100
H1015       H  0.67492943  0.32249722  0.62328697     0.15000
H1016       H  0.77788606  0.36518896  0.62251948     0.14800
C1017       C  0.62534236  0.49683566  0.77361818    -0.18100
C1018       C  0.61424711  0.48655566  0.79825870    -0.20300
C1019       C  0.58640852  0.46350976  0.80111895     0.20400
C1020       C  0.56863176  0.45171458  0.77908165    -0.03200
C1021       C  0.57975191  0.46222752  0.75418750    -0.06300
C1022       C  0.60871856  0.48431821  0.75144147     0.20600
C1023       C  0.56303836  0.44920182  0.73205786     0.18800
C1024       C  0.53449001  0.42702154  0.73497296    -0.17800
C1025       C  0.52355663  0.41650190  0.75965465    -0.20000
C1026       C  0.54089860  0.42808908  0.78184404     0.20300
C1027       C  0.53225870  0.41513420  0.80657026    -0.33000
C1028       C  0.55127076  0.42538918  0.82842142     0.01000
C1029       C  0.57730187  0.45068116  0.82555977    -0.24300
C1030       C  0.62179224  0.49185410  0.72664556    -0.28900
C1031       C  0.60668650  0.47697712  0.70464212     0.06700
C1032       C  0.57641230  0.45692847  0.70744934    -0.27600
H1033       H  0.64755185  0.51380377  0.77189482     0.11400
H1034       H  0.62812345  0.49583069  0.81507239     0.12500
H1035       H  0.52129453  0.41691444  0.71812137     0.11600
H1036       H  0.50214976  0.39853131  0.76134247     0.10800
H1037       H  0.51220725  0.39569739  0.80856946     0.16200
H1038       H  0.59193043  0.45910299  0.84228501     0.12100
H1039       H  0.64509356  0.50725817  0.72463505     0.15000
H1040       H  0.56434651  0.44564507  0.69052507     0.14800
C1041       C  0.81797480  0.49721826  0.48887649    -0.18100
C1042       C  0.84274813  0.48504460  0.47126602    -0.20300
C1043       C  0.85862424  0.45281164  0.47507029     0.20400
C1044       C  0.85001708  0.43307733  0.49722079    -0.03200
C1045       C  0.82479832  0.44518415  0.51483562    -0.06300
C1046       C  0.80843754  0.47729581  0.51054049     0.20600
C1047       C  0.81529831  0.42466995  0.53634896     0.18800
C1048       C  0.83173588  0.39287874  0.54059584    -0.17800
C1049       C  0.85677016  0.38098773  0.52324216    -0.20000
C1050       C  0.86573776  0.40067846  0.50135367     0.20300
C1051       C  0.88909792  0.38779387  0.48302857    -0.33000
C1052       C  0.89652140  0.40633026  0.46013105     0.01000
C1053       C  0.88183851  0.43932714  0.45664162    -0.24300
C1054       C  0.78227601  0.48842288  0.52760780    -0.28900
C1055       C  0.77180101  0.46735619  0.54847614     0.06700
C1056       C  0.78892160  0.43583324  0.55291381    -0.27600
H1057       H  0.80578350  0.52194642  0.48527177     0.11400
H1058       H  0.84907308  0.50061431  0.45442190     0.12500
H1059       H  0.82480211  0.37692313  0.55711255     0.11600
H1060       H  0.86862131  0.35604064  0.52666538     0.10800
H1061       H  0.90002950  0.36231743  0.48601918     0.16200
H1062       H  0.88726776  0.45385418  0.43910576     0.12100
H1063       H  0.76932823  0.51282285  0.52418146     0.15000
H1064       H  0.78150923  0.41975925  0.56927335     0.14800
C1065       C  0.62906201  0.33557571  0.49337539    -0.18100
C1066       C  0.64019906  0.36133762  0.51031498    -0.20300
C1067       C  0.62327401  0.36644215  0.53406065     0.20400
C1068       C  0.59458188  0.34559084  0.54070228    -0.03200
C1069       C  0.58310577  0.31965955  0.52343732    -0.06300
C1070       C  0.60066668  0.31459869  0.49980495     0.20600
C1071       C  0.55435798  0.29866643  0.52987689     0.18800
C1072       C  0.53767964  0.30371262  0.55379623    -0.17800
C1073       C  0.54937916  0.32910165  0.57108515    -0.20000
C1074       C  0.57781406  0.35021115  0.56473792     0.20300
C1075       C  0.59048321  0.37504029  0.58227610    -0.33000
C1076       C  0.61983149  0.39525406  0.57609812     0.01000
C1077       C  0.63538254  0.39125891  0.55158118    -0.24300
C1078       C  0.58968461  0.28863987  0.48291895    -0.28900
C1079       C  0.56088865  0.26768364  0.48881612     0.06700
C1080       C  0.54304105  0.27304132  0.51232138    -0.27600
H1081       H  0.64276941  0.33197007  0.47524355     0.11400
H1082       H  0.66235453  0.37701332  0.50496576     0.12500
H1083       H  0.51570992  0.28784419  0.55923480     0.11600
H1084       H  0.53624685  0.33211988  0.58950636     0.10800
H1085       H  0.57842806  0.37748839  0.60115890     0.16200
H1086       H  0.65809355  0.40633133  0.54653115     0.12100
H1087       H  0.60336615  0.28515566  0.46474240     0.15000
H1088       H  0.52086585  0.25705065  0.51706917     0.14800
C1089       C  0.13018887  0.04837984  0.89372431    -0.18100
C1090       C  0.16177185  0.03198487  0.88866266    -0.20300
C1091       C  0.19186920  0.05144023  0.88405236     0.20400
C1092       C  0.18982260  0.08786785  0.88387439    -0.03200
C1093       C  0.15801977  0.10446947  0.88959517    -0.06300
C1094       C  0.12812858  0.08457883  0.89468817     0.20600
C1095       C  0.15643290  0.14087206  0.89110579     0.18800
C1096       C  0.18629592  0.16034490  0.88567525    -0.17800
C1097       C  0.21769464  0.14393468  0.87988479    -0.20000
C1098       C  0.21993931  0.10769379  0.87948381     0.20300
C1099       C  0.25215159  0.09101053  0.87687260    -0.33000
C1100       C  0.25486708  0.05481262  0.87928329     0.01000
C1101       C  0.22432264  0.03519082  0.88166118    -0.24300
C1102       C  0.09689449  0.10115334  0.90115005    -0.28900
C1103       C  0.09528242  0.13736126  0.90356018     0.06700
C1104       C  0.12522532  0.15705741  0.89841922    -0.27600
H1105       H  0.10751098  0.03267774  0.89754902     0.11400
H1106       H  0.16279922  0.00401346  0.88892347     0.12500
H1107       H  0.18555385  0.18830847  0.88643314     0.11600
H1108       H  0.24050933  0.15962465  0.87651914     0.10800
H1109       H  0.27559321  0.10641440  0.87606578     0.16200
H1110       H  0.22623198  0.00749089  0.88454173     0.12100
H1111       H  0.07392529  0.08581433  0.90490778     0.15000
H1112       H  0.12406537  0.18497678  0.89973752     0.14800
C1113       C  0.38337585  0.23349464  0.88540642    -0.18100
C1114       C  0.36670634  0.20179220  0.88978896    -0.20300
C1115       C  0.38587537  0.17114131  0.89215525     0.20400
C1116       C  0.42216156  0.17236689  0.88916782    -0.03200
C1117       C  0.43904085  0.20446547  0.88493144    -0.06300
C1118       C  0.41957938  0.23523148  0.88342248     0.20600
C1119       C  0.47548561  0.20596201  0.88365844     0.18800
C1120       C  0.49459632  0.17523839  0.88545014    -0.17800
C1121       C  0.47787156  0.14341463  0.88901742    -0.20000
C1122       C  0.44170850  0.14169724  0.89128492     0.20300
C1123       C  0.42484715  0.11000711  0.89618102    -0.33000
C1124       C  0.38881737  0.10872330  0.90002952     0.01000
C1125       C  0.36951537  0.13943865  0.89791530    -0.24300
C1126       C  0.43675643  0.26732286  0.88199766    -0.28900
C1127       C  0.47311299  0.26914239  0.88288173     0.06700
C1128       C  0.49224274  0.23826728  0.88260664    -0.27600
H1129       H  0.36798477  0.25682284  0.88433304     0.11400
H1130       H  0.33881372  0.20134739  0.89180143     0.12500
H1131       H  0.52258716  0.17588507  0.88460278     0.11600
H1132       H  0.49332939  0.12019419  0.89062874     0.10800
H1133       H  0.43982961  0.08644839  0.89775120     0.16200
H1134       H  0.34169049  0.13852998  0.90049366     0.12100
H1135       H  0.42186479  0.29099121  0.88329020     0.15000
H1136       H  0.52016402  0.23950840  0.88430814     0.14800
C1137       C  0.20343198  0.99987240  0.03860771    -0.18100
C1138       C  0.17791810  0.98766536  0.05570558    -0.20300
C1139       C  0.16645979  0.95324891  0.05444644     0.20400
C1140       C  0.18044928  0.93116739  0.03539100    -0.03200
C1141       C  0.20667317  0.94323402  0.01855911    -0.06300
C1142       C  0.21828626  0.97776772  0.02015978     0.20600
C1143       C  0.22157583  0.92053676  0.00037036     0.18800
C1144       C  0.20961543  0.88641422  0.99856566    -0.17800
C1145       C  0.18332193  0.87464534  0.01493294    -0.20000
C1146       C  0.16889984  0.89670154  0.03355430     0.20300
C1147       C  0.14412725  0.88433980  0.05102192    -0.33000
C1148       C  0.13149573  0.90537176  0.07114321     0.01000
C1149       C  0.14225221  0.94011783  0.07241849    -0.24300
C1150       C  0.24457405  0.98943814  0.00335002    -0.28900
C1151       C  0.25981381  0.96668302  0.98544145     0.06700
C1152       C  0.24818249  0.93226392  0.98423103    -0.27600
H1153       H  0.21191362  0.02648662  0.04007452     0.11400
H1154       H  0.16738773  0.00507203  0.07009152     0.12500
H1155       H  0.22072508  0.86876780  0.98457588     0.11600
H1156       H  0.17471791  0.84807370  0.01335839     0.10800
H1157       H  0.13632040  0.85746804  0.04984504     0.16200
H1158       H  0.13267295  0.95653823  0.08780839     0.12100
H1159       H  0.25330031  0.01603115  0.00430852     0.15000
H1160       H  0.25930277  0.91463241  0.97021362     0.14800
C1161       C  0.46893781  0.79096100  0.96816222    -0.18100
C1162       C  0.45740308  0.81480983  0.94963586    -0.20300
C1163       C  0.43897246  0.84436097  0.95718200     0.20400
C1164       C  0.43283568  0.85031952  0.98376083    -0.03200
C1165       C  0.44403150  0.82598089  0.00244698    -0.06300
C1166       C  0.46201366  0.79602279  0.99458960     0.20600
C1167       C  0.43637459  0.83115876  0.02889473     0.18800
C1168       C  0.41899943  0.86128490  0.03656229    -0.17800
C1169       C  0.40824396  0.88552711  0.01809856    -0.20000
C1170       C  0.41442548  0.87993998  0.99162349     0.20300
C1171       C  0.40105900  0.90257368  0.97286099    -0.33000
C1172       C  0.40511835  0.89572635  0.94619494     0.01000
C1173       C  0.42522288  0.86714715  0.93858305    -0.24300
C1174       C  0.47209953  0.77136727  0.01321856    -0.28900
C1175       C  0.46332568  0.77577083  0.03943615     0.06700
C1176       C  0.44565726  0.80583006  0.04712747    -0.27600
H1177       H  0.48271040  0.76817178  0.96175409     0.11400
H1178       H  0.46241252  0.80982195  0.92932929     0.12500
H1179       H  0.41322524  0.86583655  0.05681899     0.11600
H1180       H  0.39428386  0.90822475  0.02448405     0.10800
H1181       H  0.38580516  0.92452196  0.97909073     0.16200
H1182       H  0.42857332  0.86149495  0.91817875     0.12100
H1183       H  0.48575639  0.74826960  0.00726821     0.15000
H1184       H  0.43930164  0.80952662  0.06741032     0.14800
C1185       C  0.66614580  0.99406192  0.65547458    -0.18100
C1186       C  0.63409085  0.97850834  0.65028944    -0.20300
C1187       C  0.63221718  0.94376512  0.64255261     0.20400
C1188       C  0.66288873  0.92408986  0.64135973    -0.03200
C1189       C  0.69511527  0.93949470  0.64745618    -0.06300
C1190       C  0.69693516  0.97500740  0.65358783     0.20600
C1191       C  0.72573500  0.91989669  0.64571261     0.18800
C1192       C  0.72385091  0.88488599  0.63878411    -0.17800
C1193       C  0.69210490  0.86984094  0.63233999    -0.20000
C1194       C  0.66160252  0.88939988  0.63302062     0.20300
C1195       C  0.63001975  0.87504729  0.62499371    -0.33000
C1196       C  0.59935102  0.89445801  0.62586547     0.01000
C1197       C  0.60046942  0.92856719  0.63535164    -0.24300
C1198       C  0.72952336  0.99135709  0.65541807    -0.28900
C1199       C  0.76011188  0.97244125  0.65141848     0.06700
C1200       C  0.75789597  0.93631503  0.64854590    -0.27600
H1201       H  0.66692051  0.02127790  0.66028540     0.11400
H1202       H  0.61085231  0.99401964  0.65146977     0.12500
H1203       H  0.74713683  0.86947395  0.63732336     0.11600
H1204       H  0.69152262  0.84307212  0.62626536     0.10800
H1205       H  0.62915317  0.84848646  0.61838805     0.16200
H1206       H  0.57682611  0.94350909  0.63640080     0.12100
H1207       H  0.73094844  0.01924620  0.65699531     0.15000
H1208       H  0.78134272  0.92174753  0.64484271     0.14800
C1209       C  0.54376879  0.63813164  0.64637927    -0.18100
C1210       C  0.52736227  0.67002662  0.65045438    -0.20300
C1211       C  0.54617355  0.70108874  0.64912606     0.20400
C1212       C  0.58218613  0.69968190  0.64449345    -0.03200
C1213       C  0.59849715  0.66759721  0.63937408    -0.06300
C1214       C  0.57917911  0.63663720  0.64021888     0.20600
C1215       C  0.63387268  0.66668816  0.63251864     0.18800
C1216       C  0.65303169  0.69752086  0.63222634    -0.17800
C1217       C  0.63710848  0.72909000  0.63783655    -0.20000
C1218       C  0.60158425  0.73052263  0.64344755     0.20300
C1219       C  0.58470516  0.76245566  0.64578732    -0.33000
C1220       C  0.54835228  0.76436595  0.64720927     0.01000
C1221       C  0.52935056  0.73350598  0.65019429    -0.24300
C1222       C  0.59547212  0.60494247  0.63436534    -0.28900
C1223       C  0.63042131  0.60406158  0.62647288     0.06700
C1224       C  0.64937905  0.63510645  0.62571123    -0.27600
H1225       H  0.52847934  0.61467399  0.64723730     0.11400
H1226       H  0.49976596  0.67042883  0.65410488     0.12500
H1227       H  0.68026710  0.69730086  0.62724532     0.11600
H1228       H  0.65235677  0.75257704  0.63684216     0.10800
H1229       H  0.59941603  0.78605324  0.64280080     0.16200
H1230       H  0.50134686  0.73458932  0.65057867     0.12100
H1231       H  0.58079674  0.58108048  0.63528109     0.15000
H1232       H  0.67648436  0.63452773  0.62028585     0.14800
C1233       C  0.48336166  0.90230419  0.76824891    -0.18100
C1234       C  0.47288046  0.91384680  0.79270704    -0.20300
C1235       C  0.44700677  0.93908430  0.79510727     0.20400
C1236       C  0.43182647  0.95319442  0.77269912    -0.03200
C1237       C  0.44237174  0.94147340  0.74799568    -0.06300
C1238       C  0.46814284  0.91575357  0.74574501     0.20600
C1239       C  0.42655294  0.95492198  0.72560911     0.18800
C1240       C  0.40071211  0.98019056  0.72801238    -0.17800
C1241       C  0.39030548  0.99181442  0.75246698    -0.20000
C1242       C  0.40550364  0.97835808  0.77497442     0.20300
C1243       C  0.39402125  0.98870519  0.79967368    -0.33000
C1244       C  0.40820527  0.97379214  0.82209111     0.01000
C1245       C  0.43527963  0.94959637  0.81954847    -0.24300
C1246       C  0.47758702  0.90332230  0.72112013    -0.28900
C1247       C  0.46137010  0.91610074  0.69872949     0.06700
C1248       C  0.43622112  0.94230202  0.70122685    -0.27600
H1249       H  0.50309220  0.88253767  0.76695242     0.11400
H1250       H  0.48472483  0.90268980  0.80978686     0.12500
H1251       H  0.38824804  0.99071158  0.71095656     0.11600
H1252       H  0.37002700  0.01101601  0.75378117     0.10800
H1253       H  0.37298259  0.00702745  0.80140742     0.16200
H1254       H  0.44648749  0.93789191  0.83668485     0.12100
H1255       H  0.49670145  0.88299370  0.71946450     0.15000
H1256       H  0.42336795  0.95237006  0.68416773     0.14800
C1257       C  0.33590799  0.89810296  0.48296170    -0.18100
C1258       C  0.36173075  0.88635271  0.49968895    -0.20300
C1259       C  0.36937853  0.90453699  0.52245304     0.20400
C1260       C  0.35166429  0.93552337  0.52795501    -0.03200
C1261       C  0.32567053  0.94750603  0.51097716    -0.06300
C1262       C  0.31741988  0.92830977  0.48866482     0.20600
C1263       C  0.30730791  0.97810066  0.51670209     0.18800
C1264       C  0.31560411  0.99668353  0.53916064    -0.17800
C1265       C  0.34112021  0.98460067  0.55613179    -0.20000
C1266       C  0.35895725  0.95380614  0.55089969     0.20300
C1267       C  0.38257408  0.94005127  0.56883572    -0.33000
C1268       C  0.39869759  0.90799195  0.56428442     0.01000
C1269       C  0.39305384  0.89125697  0.54044436    -0.24300
C1270       C  0.29040468  0.93923853  0.47266127    -0.28900
C1271       C  0.27153484  0.96936250  0.47835602     0.06700
C1272       C  0.28057964  0.98911439  0.50015096    -0.27600
H1273       H  0.32997916  0.88322336  0.46577977     0.11400
H1274       H  0.37512098  0.86255160  0.49514441     0.12500
H1275       H  0.30188577  0.02023314  0.54387374     0.11600
H1276       H  0.34642234  0.99901004  0.57364035     0.10800
H1277       H  0.38672356  0.95328812  0.58703650     0.16200
H1278       H  0.40531144  0.86662999  0.53656879     0.12100
H1279       H  0.28408170  0.92421184  0.45561103     0.15000
H1280       H  0.26628048  0.01243819  0.50456848     0.14800
C1281       C  0.48129462  0.69251186  0.46056241    -0.18100
C1282       C  0.49384890  0.71658686  0.47848391    -0.20300
C1283       C  0.47631070  0.72227531  0.50194092     0.20400
C1284       C  0.44648858  0.70252173  0.50773848    -0.03200
C1285       C  0.43411466  0.67792309  0.48982555    -0.06300
C1286       C  0.45113531  0.67343678  0.46585230     0.20600
C1287       C  0.40390061  0.65884796  0.49550405     0.18800
C1288       C  0.38687749  0.66370161  0.51925379    -0.17800
C1289       C  0.39889780  0.68826103  0.53684643    -0.20000
C1290       C  0.42826770  0.70817569  0.53104193     0.20300
C1291       C  0.43904968  0.73436035  0.54779986    -0.33000
C1292       C  0.46806949  0.75489184  0.54188038     0.01000
C1293       C  0.48729930  0.74806296  0.51930810    -0.24300
C1294       C  0.43680110  0.65120787  0.44717923    -0.28900
C1295       C  0.40560377  0.63349054  0.45221085     0.06700
C1296       C  0.39019903  0.63649103  0.47687862    -0.27600
H1297       H  0.49481289  0.68931669  0.44231714     0.11400
H1298       H  0.51682034  0.73137437  0.47370400     0.12500
H1299       H  0.36369125  0.64917372  0.52392080     0.11600
H1300       H  0.38480281  0.69217491  0.55477293     0.10800
H1301       H  0.42453586  0.73909515  0.56544960     0.16200
H1302       H  0.50977754  0.76373666  0.51475661     0.12100
H1303       H  0.44899107  0.64909248  0.42832076     0.15000
H1304       H  0.36629896  0.62291712  0.48116520     0.14800
C1305       C  0.13519788  0.30007181  0.89257882    -0.18100
C1306       C  0.15219386  0.33143434  0.89740828    -0.20300
C1307       C  0.13390412  0.36277513  0.89715374     0.20400
C1308       C  0.09823297  0.36243123  0.89131114    -0.03200
C1309       C  0.08098348  0.33069344  0.88665379    -0.06300
C1310       C  0.09951628  0.29936141  0.88753058     0.20600
C1311       C  0.04489359  0.33020030  0.88247002     0.18800
C1312       C  0.02670703  0.36154562  0.88178272    -0.17800
C1313       C  0.04390389  0.39297740  0.88571652    -0.20000
C1314       C  0.07953743  0.39368515  0.89088055     0.20300
C1315       C  0.09659323  0.42504293  0.89606545    -0.33000
C1316       C  0.13199336  0.42572803  0.90248274     0.01000
C1317       C  0.15047851  0.39434014  0.90296139    -0.24300
C1318       C  0.08165110  0.26779382  0.88528642    -0.28900
C1319       C  0.04533434  0.26697566  0.88329997     0.06700
C1320       C  0.02729872  0.29835500  0.88095467    -0.27600
H1321       H  0.14982436  0.27624171  0.89346942     0.11400
H1322       H  0.17959484  0.33110988  0.90171581     0.12500
H1323       H  0.99901817  0.36172484  0.87864953     0.11600
H1324       H  0.02913380  0.41673233  0.88530914     0.10800
H1325       H  0.08207622  0.44897267  0.89564060     0.16200
H1326       H  0.17782806  0.39454963  0.90751293     0.12100
H1327       H  0.09552716  0.24377389  0.88822454     0.15000
H1328       H  0.99926545  0.29797293  0.88052450     0.14800
C1329       C  0.32730622  0.37457956  0.89337969    -0.18100
C1330       C  0.29554673  0.39022640  0.88773698    -0.20300
C1331       C  0.29389510  0.42552569  0.88144764     0.20400
C1332       C  0.32478206  0.44481665  0.87953249    -0.03200
C1333       C  0.35697596  0.42889285  0.88504293    -0.06300
C1334       C  0.35808331  0.39386644  0.89274665     0.20600
C1335       C  0.38779276  0.44843047  0.88406310     0.18800
C1336       C  0.38622177  0.48342025  0.87676194    -0.17800
C1337       C  0.35429926  0.49937193  0.87196897    -0.20000
C1338       C  0.32331236  0.48053037  0.87391842     0.20300
C1339       C  0.29092942  0.49725016  0.87265196    -0.33000
C1340       C  0.26005132  0.47862372  0.87669662     0.01000
C1341       C  0.26182295  0.44242588  0.87935706    -0.24300
C1342       C  0.38968639  0.37901632  0.90045944    -0.28900
C1343       C  0.42050473  0.39848861  0.90027160     0.06700
C1344       C  0.41938505  0.43298116  0.89126213    -0.27600
H1345       H  0.32766575  0.34756999  0.89895878     0.11400
H1346       H  0.27209669  0.37498740  0.88928642     0.12500
H1347       H  0.40960724  0.49881633  0.87568144     0.11600
H1348       H  0.35378745  0.52674224  0.86751558     0.10800
H1349       H  0.28991313  0.52520072  0.87141193     0.16200
H1350       H  0.23827132  0.42805879  0.88335097     0.12100
H1351       H  0.39028677  0.35223798  0.90666641     0.15000
H1352       H  0.44294966  0.44817293  0.89066238     0.14800
C1353       C  0.25880576  0.78779856  0.85156738    -0.18100
C1354       C  0.24869160  0.75310712  0.85090853    -0.20300
C1355       C  0.24632290  0.73372230  0.87386478     0.20400
C1356       C  0.25407434  0.74948584  0.89777441    -0.03200
C1357       C  0.26383244  0.78478537  0.89848032    -0.06300
C1358       C  0.26648721  0.80384153  0.87521770     0.20600
C1359       C  0.27130225  0.80086735  0.92236255     0.18800
C1360       C  0.26882602  0.78134509  0.94530829    -0.17800
C1361       C  0.25927996  0.74632823  0.94460123    -0.20000
C1362       C  0.25186060  0.73007757  0.92093810     0.20300
C1363       C  0.24135813  0.69513358  0.92004255    -0.33000
C1364       C  0.23229305  0.67967903  0.89629608     0.01000
C1365       C  0.23548055  0.69911906  0.87331216    -0.24300
C1366       C  0.27776228  0.83830725  0.87586430    -0.28900
C1367       C  0.28634892  0.85440605  0.89943291     0.06700
C1368       C  0.28214681  0.83576741  0.92273693    -0.27600
H1369       H  0.26071863  0.80207981  0.83352820     0.11400
H1370       H  0.24273624  0.74141368  0.83240025     0.12500
H1371       H  0.27450925  0.79311040  0.96383346     0.11600
H1372       H  0.25759581  0.73196526  0.96261572     0.10800
H1373       H  0.23841556  0.68059590  0.93790721     0.16200
H1374       H  0.22847464  0.68752740  0.85495759     0.12100
H1375       H  0.28102213  0.85239342  0.85782015     0.15000
H1376       H  0.28925374  0.84772801  0.94092588     0.14800
C1377       C  0.04288027  0.73813058  0.97101696    -0.18100
C1378       C  0.05460620  0.71379092  0.95288638    -0.20300
C1379       C  0.08128287  0.69063299  0.95919633     0.20400
C1380       C  0.09623569  0.69216688  0.98407812    -0.03200
C1381       C  0.08487419  0.71712686  0.00217459    -0.06300
C1382       C  0.05786454  0.74012962  0.99574666     0.20600
C1383       C  0.10073599  0.71911214  0.02667588     0.18800
C1384       C  0.12733355  0.69606032  0.03310589    -0.17800
C1385       C  0.13822318  0.67114905  0.01538058    -0.20000
C1386       C  0.12292570  0.66906639  0.99082695     0.20300
C1387       C  0.13461412  0.64482335  0.97274715    -0.33000
C1388       C  0.12087494  0.64367251  0.94749905     0.01000
C1389       C  0.09384371  0.66655029  0.94096673    -0.24300
C1390       C  0.04648628  0.76462294  0.01415044    -0.28900
C1391       C  0.06255209  0.76684612  0.03857942     0.06700
C1392       C  0.08977556  0.74401590  0.04445224    -0.27600
H1393       H  0.02222196  0.75557044  0.96561294     0.11400
H1394       H  0.04280294  0.71311480  0.93388528     0.12500
H1395       H  0.13973024  0.69728606  0.05188496     0.11600
H1396       H  0.15888439  0.65370453  0.02079711     0.10800
H1397       H  0.15570556  0.62783975  0.97809525     0.16200
H1398       H  0.08320247  0.66622720  0.92156946     0.12100
H1399       H  0.02556595  0.78210359  0.00939742     0.15000
H1400       H  0.10212752  0.74510364  0.06327154     0.14800
C1401       C  0.34024363  0.55220366  0.05746513    -0.18100
C1402       C  0.31513180  0.53941695  0.04044352    -0.20300
C1403       C  0.30088550  0.56081192  0.02123063     0.20400
C1404       C  0.31237168  0.59538297  0.01907493    -0.03200
C1405       C  0.33807740  0.60809658  0.03594438    -0.06300
C1406       C  0.35187226  0.58651916  0.05541510     0.20600
C1407       C  0.34958289  0.64257715  0.03352964     0.18800
C1408       C  0.33533055  0.66408835  0.01443758    -0.17800
C1409       C  0.30971550  0.65161511  0.99790720    -0.20000
C1410       C  0.29808206  0.61738054  0.00013088     0.20300
C1411       C  0.27246943  0.60484062  0.98360817    -0.33000
C1412       C  0.26098631  0.57032356  0.98528249     0.01000
C1413       C  0.27544413  0.54834728  0.00413238    -0.24300
C1414       C  0.37641273  0.59990474  0.07281200    -0.28900
C1415       C  0.38763617  0.63447593  0.07071629     0.06700
C1416       C  0.37449549  0.65532126  0.05064334    -0.27600
H1417       H  0.35051644  0.53524837  0.07229412     0.11400
H1418       H  0.30667086  0.51283800  0.04243493     0.12500
H1419       H  0.34379099  0.69067270  0.01243085     0.11600
H1420       H  0.29896410  0.66877288  0.98338634     0.10800
H1421       H  0.26199625  0.62200209  0.96896105     0.16200
H1422       H  0.26690273  0.52171744  0.00551759     0.12100
H1423       H  0.38613125  0.58369474  0.08831866     0.15000
H1424       H  0.38241171  0.68213531  0.04903443     0.14800
C1425       C  0.88675463  0.80017242  0.63968765    -0.18100
C1426       C  0.87023154  0.83162527  0.63466285    -0.20300
C1427       C  0.88898055  0.86270623  0.63481383     0.20400
C1428       C  0.92450067  0.86221341  0.64107186    -0.03200
C1429       C  0.94135640  0.83033175  0.64565060    -0.06300
C1430       C  0.92242063  0.79917543  0.64463294     0.20600
C1431       C  0.97746491  0.82948477  0.64961968     0.18800
C1432       C  0.99591723  0.86073471  0.65081660    -0.17800
C1433       C  0.97899049  0.89240957  0.64726173    -0.20000
C1434       C  0.94345611  0.89340851  0.64173234     0.20300
C1435       C  0.92673866  0.92486235  0.63613505    -0.33000
C1436       C  0.89173807  0.92529433  0.62868935     0.01000
C1437       C  0.87300483  0.89412997  0.62827809    -0.24300
C1438       C  0.93986682  0.76746690  0.64640085    -0.28900
C1439       C  0.97617097  0.76632872  0.64760183     0.06700
C1440       C  0.99472677  0.79743703  0.65024506    -0.27600
H1441       H  0.87185015  0.77647467  0.63876590     0.11400
H1442       H  0.84288312  0.83156303  0.63015824     0.12500
H1443       H  0.02360607  0.86065313  0.65395054     0.11600
H1444       H  0.99395136  0.91608025  0.64795921     0.10800
H1445       H  0.94116946  0.94888537  0.63674632     0.16200
H1446       H  0.84582095  0.89446304  0.62317769     0.12100
H1447       H  0.92560770  0.74365860  0.64335483     0.15000
H1448       H  0.02275741  0.79679241  0.65021677     0.14800
C1449       C  0.85642536  0.53245943  0.64221238    -0.18100
C1450       C  0.88758407  0.54937163  0.63649216    -0.20300
C1451       C  0.88891339  0.58554851  0.63459192     0.20400
C1452       C  0.85873714  0.60497483  0.63930478    -0.03200
C1453       C  0.82731176  0.58786000  0.64556244    -0.06300
C1454       C  0.82600051  0.55138348  0.64641199     0.20600
C1455       C  0.79683152  0.60713035  0.64943590     0.18800
C1456       C  0.79834248  0.64339032  0.64805509    -0.17800
C1457       C  0.82942700  0.66032193  0.64184911    -0.20000
C1458       C  0.85968731  0.64136005  0.63691872     0.20300
C1459       C  0.89072148  0.65798466  0.62938109    -0.33000
C1460       C  0.92101080  0.63868090  0.62477677     0.01000
C1461       C  0.91980301  0.60250889  0.62772449    -0.24300
C1462       C  0.79390665  0.53444464  0.64922940    -0.28900
C1463       C  0.76299276  0.55343746  0.65073187     0.06700
C1464       C  0.76497884  0.58977102  0.65238758    -0.27600
H1465       H  0.85596150  0.50447527  0.64271509     0.11400
H1466       H  0.91053529  0.53405856  0.63296542     0.12500
H1467       H  0.77520392  0.65865068  0.65098781     0.11600
H1468       H  0.82961692  0.68825574  0.64039191     0.10800
H1469       H  0.89150768  0.68589219  0.62759598     0.16200
H1470       H  0.94297510  0.58745000  0.62429764     0.12100
H1471       H  0.79257496  0.50661453  0.64703728     0.15000
H1472       H  0.74122712  0.60463967  0.65265922     0.14800
C1473       C  0.25189987  0.83100364  0.61431893    -0.18100
C1474       C  0.21855344  0.81727432  0.61663142    -0.20300
C1475       C  0.21369935  0.78170902  0.62045078     0.20400
C1476       C  0.24287154  0.75977040  0.62188461    -0.03200
C1477       C  0.27653909  0.77357819  0.61929064    -0.06300
C1478       C  0.28096353  0.80937659  0.61562222     0.20600
C1479       C  0.30572800  0.75163910  0.62057552     0.18800
C1480       C  0.30085815  0.71606976  0.62449609    -0.17800
C1481       C  0.26750258  0.70239991  0.62716716    -0.20000
C1482       C  0.23843458  0.72405756  0.62594027     0.20300
C1483       C  0.20501049  0.71057657  0.62865408    -0.33000
C1484       C  0.17569799  0.73215521  0.62714522     0.01000
C1485       C  0.18024980  0.76771579  0.62284481    -0.24300
C1486       C  0.31438620  0.82307179  0.61376195    -0.28900
C1487       C  0.34368455  0.80160720  0.61549504     0.06700
C1488       C  0.33919597  0.76577089  0.61841212    -0.27600
H1489       H  0.25496871  0.85860295  0.61155143     0.11400
H1490       H  0.19655466  0.83450886  0.61552374     0.12500
H1491       H  0.32285438  0.69883406  0.62562368     0.11600
H1492       H  0.26443716  0.67485184  0.63023421     0.10800
H1493       H  0.20183765  0.68298081  0.63149882     0.16200
H1494       H  0.15786588  0.78445043  0.62156203     0.12100
H1495       H  0.31765524  0.85073667  0.61136372     0.15000
H1496       H  0.36164450  0.74917514  0.62004446     0.14800
C1497       C  0.03838585  0.61615583  0.79567520    -0.18100
C1498       C  0.02785784  0.62691018  0.77098326    -0.20300
C1499       C  0.04149410  0.61126408  0.74869012     0.20400
C1500       C  0.06506620  0.58359399  0.75148022    -0.03200
C1501       C  0.07578540  0.57278182  0.77643339    -0.06300
C1502       C  0.06284737  0.58962573  0.79855774     0.20600
C1503       C  0.10063107  0.54623506  0.77916186     0.18800
C1504       C  0.11337436  0.52979158  0.75692202    -0.17800
C1505       C  0.10273018  0.54043156  0.73224958    -0.20000
C1506       C  0.07915437  0.56773971  0.72933340     0.20300
C1507       C  0.07075216  0.58048275  0.70466303    -0.33000
C1508       C  0.04877535  0.60927923  0.70160110     0.01000
C1509       C  0.03329705  0.62381393  0.72374415    -0.24300
C1510       C  0.07591915  0.58095427  0.82306132    -0.28900
C1511       C  0.10239212  0.55614732  0.82586831     0.06700
C1512       C  0.11362185  0.53789674  0.80389460    -0.27600
H1513       H  0.02811066  0.62928942  0.81252262     0.11400
H1514       H  0.00968509  0.64806939  0.76932285     0.12500
H1515       H  0.13230712  0.50930518  0.75856669     0.11600
H1516       H  0.11368820  0.52788942  0.71539061     0.10800
H1517       H  0.08271507  0.56887669  0.68779012     0.16200
H1518       H  0.01654411  0.64607218  0.72168690     0.12100
H1519       H  0.06671938  0.59497388  0.83986713     0.15000
H1520       H  0.13392573  0.51879051  0.80579526     0.14800
C1521       C  0.20112651  0.64597374  0.49445252    -0.18100
C1522       C  0.17640533  0.65790047  0.51208314    -0.20300
C1523       C  0.16652425  0.63745812  0.53336984     0.20400
C1524       C  0.18140787  0.60451853  0.53678124    -0.03200
C1525       C  0.20621899  0.59231214  0.51880141    -0.06300
C1526       C  0.21628871  0.61332376  0.49773014     0.20600
C1527       C  0.22121103  0.55932766  0.52207761     0.18800
C1528       C  0.21114125  0.53892989  0.54336596    -0.17800
C1529       C  0.18692907  0.55123400  0.56139046    -0.20000
C1530       C  0.17196537  0.58404589  0.55835953     0.20300
C1531       C  0.14833725  0.59703280  0.57675932    -0.33000
C1532       C  0.13370371  0.63013319  0.57368203     0.01000
C1533       C  0.14263538  0.64981044  0.55158940    -0.24300
C1534       C  0.24156509  0.60153977  0.48039179    -0.28900
C1535       C  0.25701780  0.56876533  0.48346530     0.06700
C1536       C  0.24625114  0.54756641  0.50422314    -0.27600
H1537       H  0.20853929  0.66239474  0.47831316     0.11400
H1538       H  0.16527935  0.68330338  0.50921781     0.12500
H1539       H  0.22230190  0.51356075  0.54625648     0.11600
H1540       H  0.18002329  0.53510177  0.57780367     0.10800
H1541       H  0.14197508  0.58170702  0.59372855     0.16200
H1542       H  0.13201975  0.67549591  0.54899217     0.12100
H1543       H  0.24908312  0.61802545  0.46430055     0.15000
H1544       H  0.25777296  0.52228177  0.50675587     0.14800
C1545       C  0.13891396  0.83042520  0.53178907    -0.18100
C1546       C  0.14958803  0.85718940  0.51537415    -0.20300
C1547       C  0.12833454  0.86825052  0.49499062     0.20400
C1548       C  0.09554339  0.85295832  0.49159055    -0.03200
C1549       C  0.08455221  0.82612676  0.50841926    -0.06300
C1550       C  0.10663487  0.81451640  0.52828969     0.20600
C1551       C  0.05180381  0.81058169  0.50510942     0.18800
C1552       C  0.03023245  0.82243226  0.48510589    -0.17800
C1553       C  0.04140019  0.84858914  0.46811562    -0.20000
C1554       C  0.07423161  0.86370804  0.47093273     0.20300
C1555       C  0.08679537  0.88812255  0.45283333    -0.33000
C1556       C  0.12034024  0.90207446  0.45531626     0.01000
C1557       C  0.14013580  0.89309001  0.47723119    -0.24300
C1558       C  0.09614698  0.78728226  0.54443937    -0.28900
C1559       C  0.06340586  0.77159651  0.54163158     0.06700
C1560       C  0.04129737  0.78355966  0.52184308    -0.27600
H1561       H  0.15605303  0.82197599  0.54712196     0.11400
H1562       H  0.17484319  0.86870045  0.51826152     0.12500
H1563       H  0.00490117  0.81106795  0.48232097     0.11600
H1564       H  0.02452797  0.85662690  0.45250725     0.10800
H1565       H  0.07117367  0.89490667  0.43618523     0.16200
H1566       H  0.16593616  0.90360129  0.47959476     0.12100
H1567       H  0.11343431  0.77886026  0.55969602     0.15000
H1568       H  0.01593586  0.77204096  0.51954872     0.14800
loop_ 
_geom_bond_atom_site_label_1 
_geom_bond_atom_site_label_2 
_geom_bond_distance 
_geom_bond_site_symmetry_2 
_ccdc_geom_bond_type 
O1           Ni7   1.921       .  S
O1           C22   1.270       .  A
O2          Ni25   1.894       .  S
O2           C11   1.266       .  A
O3           Ni7   1.903       .  S
O3          Ni25   1.874       .  S
O3          Ni19   1.888       .  S
O3           H26   0.967       .  S
C4           O21   1.264       .  A
C4           O13   1.275       .  A
C4         C1460   1.492       .  S
O5          Ni24   1.947   1_455  S
O5           C11   1.276       .  A
O6          Ni24   1.880       .  S
O6            C8   1.269       .  A
Ni7          O10   1.922       .  S
Ni7          O12   1.920       .  S
C8           O18   1.292   1_655  A
C8         C1439   1.472       .  S
O9          Ni25   1.930       .  S
O9           C15   1.284       .  A
O10          C15   1.279       .  A
C11        C1559   1.495       .  S
O12          C14   1.269       .  A
O13         Ni24   1.960       .  S
C14          O20   1.269       .  A
C14        C1532   1.492       .  S
C15        C1484   1.482       .  S
H16          O17   0.966       .  S
O17         Ni25   1.957       .  S
O17         Ni19   1.930       .  S
O17         Ni24   1.923   1_455  S
O18         Ni19   1.983       .  S
Ni19         O23   1.935       .  S
Ni19         O21   1.902   1_455  S
O20         Ni25   1.923       .  S
C22          O23   1.276       .  A
C22        C1508   1.491       .  S
O27         Ni33   1.915       .  S
O27          C48   1.269       .  A
O28         Ni51   1.880       .  S
O28          C37   1.263       .  A
O29         Ni33   1.904       .  S
O29         Ni51   1.877       .  S
O29         Ni45   1.906       .  S
O29          H52   0.966       .  S
C30          O47   1.269       .  A
C30          O39   1.278       .  A
C30        C1316   1.494       .  S
O31         Ni50   1.948       .  S
O31          C37   1.276       .  A
O32         Ni50   1.882       .  S
O32          C34   1.267       .  A
Ni33         O36   1.919       .  S
Ni33         O38   1.922       .  S
C34          O44   1.291       .  A
C34        C1340   1.479       .  S
O35         Ni51   1.945       .  S
O35          C41   1.285       .  A
O36          C41   1.280       .  A
C37        C1412   1.484       .  S
O38          C40   1.268       .  A
O39         Ni50   1.958       .  S
C40          O46   1.268       .  A
C40        C1388   1.492       .  S
C41        C1364   1.488       .  S
H42          O43   0.966       .  S
O43         Ni51   1.945       .  S
O43         Ni45   1.923       .  S
O43         Ni50   1.918       .  S
O44         Ni45   1.986       .  S
Ni45         O49   1.935       .  S
Ni45         O47   1.908       .  S
O46         Ni51   1.915       .  S
C48          O49   1.277       .  A
C48        C1511   1.489       .  S
O53         Ni59   1.914       .  S
O53          C74   1.269       .  A
O54         Ni77   1.888       .  S
O54          C63   1.264       .  A
O55         Ni59   1.898       .  S
O55         Ni77   1.873       .  S
O55         Ni71   1.892       .  S
O55          H78   0.967       .  S
C56          O73   1.267       .  A
C56          O65   1.275       .  A
C56        C1196   1.486       .  S
O57         Ni76   1.943       .  S
O57          C63   1.274       .  A
O58         Ni76   1.883       .  S
O58          C60   1.269       .  A
Ni59         O62   1.926       .  S
Ni59         O64   1.913       .  S
C60          O70   1.291       .  A
C60        C1220   1.481       .  S
O61         Ni77   1.933       .  S
O61          C67   1.285       .  A
O62          C67   1.281       .  A
C63        C1292   1.479       .  S
O64          C66   1.266       .  A
O65         Ni76   1.938       .  S
C66          O72   1.268       .  A
C66        C1268   1.489       .  S
C67        C1487   1.480       .  S
H68          O69   0.966       .  S
O69         Ni77   1.950       .  S
O69         Ni71   1.934       .  S
O69         Ni76   1.919       .  S
O70         Ni71   1.977       .  S
Ni71         O75   1.928       .  S
Ni71         O73   1.912       .  S
O72         Ni77   1.929       .  S
C74          O75   1.276       .  A
C74        C1247   1.486       .  S
O79         Ni85   1.906       .  S
O79         C100   1.267       .  A
O80        Ni103   1.884       .  S
O80          C89   1.264       .  A
O81         Ni85   1.897       .  S
O81        Ni103   1.874       .  S
O81         Ni97   1.911   1_565  S
O81         H104   0.966       .  S
C82          O99   1.272       .  A
C82          O91   1.277       .  A
C82        C1124   1.489       .  S
O83        Ni102   1.945       .  S
O83          C89   1.276   1_545  A
O84        Ni102   1.881       .  S
O84          C86   1.267       .  A
Ni85         O88   1.913       .  S
Ni85         O90   1.920       .  S
C86          O96   1.290       .  A
C86        C1100   1.480       .  S
O87        Ni103   1.960       .  S
O87          C93   1.290       .  A
O88          C93   1.279       .  A
C89        C1151   1.479       .  S
O90          C92   1.268       .  A
O91        Ni102   1.945       .  S
C92          O98   1.266       .  A
C92        C1172   1.491       .  S
C93        C1367   1.489       .  S
H94          O95   0.966   1_565  S
O95        Ni103   1.946   1_545  S
O95         Ni97   1.922       .  S
O95        Ni102   1.914       .  S
O96         Ni97   1.981       .  S
Ni97        O101   1.935       .  S
Ni97         O99   1.920       .  S
O98        Ni103   1.915       .  S
C100        O101   1.278   1_565  A
C100       C1244   1.485       .  S
O105       Ni111   1.925       .  S
O105        C126   1.271       .  A
O106       Ni129   1.887       .  S
O106        C115   1.264       .  A
O107       Ni111   1.903       .  S
O107       Ni129   1.875       .  S
O107       Ni123   1.898       .  S
O107        H130   0.968       .  S
C108        O125   1.268       .  A
C108        O117   1.276       .  A
C108       C1223   1.490       .  S
O109       Ni128   1.944       .  S
O109        C115   1.275       .  A
O110       Ni128   1.883       .  S
O110        C112   1.268       .  A
Ni111       O114   1.934       .  S
Ni111       O116   1.912       .  S
C112        O122   1.289       .  A
C112       C1463   1.478       .  S
O113       Ni129   1.934       .  S
O113        C119   1.284       .  A
O114        C119   1.282       .  A
C115       C1055   1.481       .  S
O116        C118   1.266       .  A
O117       Ni128   1.942       .  S
C118        O124   1.270       .  A
C118       C1076   1.492       .  S
C119       C1007   1.486       .  S
H120        O121   0.966       .  S
O121       Ni129   1.949       .  S
O121       Ni123   1.927       .  S
O121       Ni128   1.923       .  S
O122       Ni123   1.975       .  S
Ni123       O127   1.917       .  S
Ni123       O125   1.916       .  S
O124       Ni129   1.929       .  S
C126        O127   1.274       .  A
C126       C1031   1.480       .  S
O131       Ni137   1.913       .  S
O131        C152   1.268       .  A
O132       Ni155   1.896       .  S
O132        C141   1.269       .  A
O133       Ni137   1.897       .  S
O133       Ni155   1.875       .  S
O133       Ni149   1.895       .  S
O133        H156   0.965       .  S
C134        O151   1.263       .  A
C134        O143   1.277       .  A
C134       C1343   1.497       .  S
O135       Ni154   1.953       .  S
O135        C141   1.278       .  A
O136       Ni154   1.881       .  S
O136        C138   1.270       .  A
Ni137       O140   1.919       .  S
Ni137       O142   1.915       .  S
C138        O148   1.293       .  A
C138       C1127   1.474       .  S
O139       Ni155   1.943       .  S
O139        C145   1.287       .  A
O140        C145   1.279       .  A
C141        C956   1.494       .  S
O142        C144   1.268       .  A
O143       Ni154   1.961       .  S
C144        O150   1.269       .  A
C144        C935   1.489       .  S
C145        C980   1.479       .  S
H146        O147   0.967       .  S
O147       Ni155   1.958       .  S
O147       Ni149   1.926       .  S
O147       Ni154   1.919       .  S
O148       Ni149   1.987       .  S
Ni149       O153   1.929       .  S
Ni149       O151   1.905       .  S
O150       Ni155   1.920       .  S
C152        O153   1.274       .  A
C152       C1028   1.484       .  S
O157       Ni163   1.915       .  S
O157        C178   1.268       .  A
O158       Ni181   1.884       .  S
O158        C167   1.262       .  A
O159       Ni163   1.904       .  S
O159       Ni181   1.876       .  S
O159       Ni175   1.899       .  S
O159        H182   0.966       .  S
C160        O177   1.267       .  A
C160        O169   1.275       .  A
C160       C1436   1.483       .  S
O161       Ni180   1.949   1_545  S
O161        C167   1.275       .  A
O162       Ni180   1.885       .  S
O162        C164   1.270       .  A
Ni163       O166   1.926       .  S
Ni163       O168   1.912       .  S
C164        O174   1.289   1_565  A
C164       C1199   1.478       .  S
O165       Ni181   1.934       .  S
O165        C171   1.283       .  A
O166        C171   1.281       .  A
C167        C911   1.480       .  S
O168        C170   1.265       .  A
O169       Ni180   1.939       .  S
C170        O176   1.268       .  A
C170        C887   1.487       .  S
C171       C1004   1.482       .  S
H172        O173   0.966       .  S
O173       Ni181   1.943       .  S
O173       Ni175   1.930       .  S
O173       Ni180   1.922   1_545  S
O174       Ni175   1.974       .  S
Ni175       O179   1.932       .  S
Ni175       O177   1.909   1_545  S
O176       Ni181   1.919       .  S
C178        O179   1.275       .  A
C178        C860   1.485       .  S
O183       Ni189   1.920       .  S
O183        C204   1.270       .  A
O184       Ni207   1.896       .  S
O184        C193   1.268       .  A
O185       Ni189   1.902       .  S
O185       Ni207   1.875       .  S
O185       Ni201   1.892       .  S
O185        H208   0.965       .  S
C186        O203   1.262       .  A
C186        O195   1.274       .  A
C186       C1103   1.491       .  S
O187       Ni206   1.940   1_655  S
O187        C193   1.275       .  A
O188       Ni206   1.878       .  S
O188        C190   1.269       .  A
Ni189       O192   1.927       .  S
Ni189       O194   1.920       .  S
C190        O200   1.294       .  A
C190       C1319   1.474       .  S
O191       Ni207   1.938       .  S
O191        C197   1.286       .  A
O192        C197   1.280       .  A
C193        C812   1.486       .  S
O194        C196   1.268       .  A
O195       Ni206   1.957       .  S
C196        O202   1.268       .  A
C196        C836   1.487       .  S
C197        C983   1.481       .  S
H198        O199   0.967       .  S
O199       Ni207   1.959       .  S
O199       Ni201   1.923       .  S
O199       Ni206   1.919   1_655  S
O200       Ni201   1.989   1_455  S
Ni201       O205   1.928       .  S
Ni201       O203   1.905   1_655  S
O202       Ni207   1.916       .  S
C204        O205   1.274       .  A
C204        C863   1.484       .  S
O209       Ni215   1.954       .  S
O209        C230   1.277       .  A
O210       Ni233   1.943       .  S
O210        C219   1.280       .  A
O211       Ni215   1.922       .  S
O211       Ni233   1.933       .  S
O211       Ni227   1.951       .  S
O211        H234   0.966       .  S
C212        O229   1.286       .  A
C212        O221   1.280       .  A
C212        C767   1.482       .  S
O213       Ni232   1.913       .  S
O213        C219   1.268       .  A
O214       Ni232   1.920       .  S
O214        C216   1.268       .  A
Ni215       O218   1.951       .  S
Ni215       O220   1.882       .  S
C216        O226   1.266       .  A
C216        C815   1.489       .  S
O217       Ni233   1.917       .  S
O217        C223   1.269       .  A
O218        C223   1.277       .  A
C219        C791   1.493       .  S
O220        C222   1.269       .  A
O221       Ni232   1.920       .  S
C222        O228   1.293       .  A
C222        C740   1.479       .  S
C223        C719   1.494       .  S
H224        O225   0.966       .  S
O225       Ni233   1.901       .  S
O225       Ni227   1.876       .  S
O225       Ni232   1.902       .  S
O226       Ni227   1.910       .  S
Ni227       O231   1.890       .  S
Ni227       O229   1.942       .  S
O228       Ni233   1.982       .  S
C230        O231   1.264       .  A
C230        C932   1.487       .  S
O235       Ni241   1.949       .  S
O235        C256   1.274   1_455  A
O236       Ni259   1.941       .  S
O236        C245   1.276       .  A
O237       Ni241   1.926   1_655  S
O237       Ni259   1.936       .  S
O237       Ni253   1.951       .  S
O237        H260   0.966       .  S
C238        O255   1.282       .  A
C238        O247   1.280       .  A
C238        C692   1.479       .  S
O239       Ni258   1.918       .  S
O239        C245   1.269       .  A
O240       Ni258   1.913       .  S
O240        C242   1.266       .  A
Ni241       O244   1.952       .  S
Ni241       O246   1.885       .  S
C242        O252   1.268       .  A
C242       C1052   1.487       .  S
O243       Ni259   1.906   1_455  S
O243        C249   1.266       .  A
O244        C249   1.275       .  A
C245        C788   1.494       .  S
O246        C248   1.270       .  A
O247       Ni258   1.932       .  S
C248        O254   1.290       .  A
C248        C644   1.473       .  S
C249        C668   1.489       .  S
H250        O251   0.966       .  S
O251       Ni259   1.892       .  S
O251       Ni253   1.875       .  S
O251       Ni258   1.908       .  S
O252       Ni253   1.923       .  S
Ni253       O257   1.887       .  S
Ni253       O255   1.929       .  S
O254       Ni259   1.979   1_455  S
C256        O257   1.264       .  A
C256        C884   1.493       .  S
O261       Ni267   1.944   1_545  S
O261        C282   1.275       .  A
O262       Ni285   1.928       .  S
O262        C271   1.276       .  A
O263       Ni267   1.922   1_545  S
O263       Ni285   1.926       .  S
O263       Ni279   1.948       .  S
O263        H286   0.966       .  S
C264        O281   1.287       .  A
C264        O273   1.280       .  A
C264        C764   1.481       .  S
O265       Ni284   1.918       .  S
O265        C271   1.270       .  A
O266       Ni284   1.923       .  S
O266        C268   1.269       .  A
Ni267       O270   1.951       .  S
Ni267       O272   1.877       .  S
C268        O278   1.271       .  A
C268        C959   1.499       .  S
O269       Ni285   1.905   1_565  S
O269        C275   1.266       .  A
O270        C275   1.276       .  A
C271        C620   1.485       .  S
O272        C274   1.267       .  A
O273       Ni284   1.918       .  S
C274        O280   1.292   1_565  A
C274        C572   1.480       .  S
C275        C596   1.486       .  S
H276        O277   0.966       .  S
O277       Ni285   1.899       .  S
O277       Ni279   1.875       .  S
O277       Ni284   1.901       .  S
O278       Ni279   1.926       .  S
Ni279       O283   1.890       .  S
Ni279       O281   1.943       .  S
O280       Ni285   1.986       .  S
C282        O283   1.266       .  A
C282        C839   1.485       .  S
O287       Ni293   1.954       .  S
O287        C308   1.277       .  A
O288       Ni311   1.929       .  S
O288        C297   1.274       .  A
O289       Ni293   1.926       .  S
O289       Ni311   1.930       .  S
O289       Ni305   1.958       .  S
O289        H312   0.967       .  S
C290        O307   1.288       .  A
C290        O299   1.279       .  A
C290        C695   1.492       .  S
O291       Ni310   1.916       .  S
O291        C297   1.269       .  A
O292       Ni310   1.914       .  S
O292        C294   1.267       .  A
Ni293       O296   1.964       .  S
Ni293       O298   1.884       .  S
C294        O304   1.269       .  A
C294        C908   1.491       .  S
O295       Ni311   1.908       .  S
O295        C301   1.264       .  A
O296        C301   1.278       .  A
C297        C623   1.486       .  S
O298        C300   1.269       .  A
O299       Ni310   1.918       .  S
C300        O306   1.294       .  A
C300        C548   1.483       .  S
C301        C527   1.499       .  S
H302        O303   0.964       .  S
O303       Ni311   1.897       .  S
O303       Ni305   1.876       .  S
O303       Ni310   1.904       .  S
O304       Ni305   1.923       .  S
Ni305       O309   1.890       .  S
Ni305       O307   1.946       .  S
O306       Ni311   1.990       .  S
C308        O309   1.266       .  A
C308       C1079   1.490       .  S
O313       Ni319   1.940       .  S
O313        C334   1.274       .  A
O314       Ni337   1.931       .  S
O314        C323   1.274       .  A
O315       Ni319   1.920       .  S
O315       Ni337   1.929       .  S
O315       Ni331   1.956       .  S
O315        H338   0.966       .  S
C316        O333   1.282       .  A
C316        O325   1.279       .  A
C316        C476   1.480       .  S
O317       Ni336   1.920       .  S
O317        C323   1.268       .  A
O318       Ni336   1.910       .  S
O318        C320   1.267       .  A
Ni319       O322   1.952       .  S
Ni319       O324   1.883       .  S
C320        O330   1.271       .  A
C320       C1415   1.484       .  S
O321       Ni337   1.902       .  S
O321        C327   1.262       .  A
O322        C327   1.274       .  A
C323        C500   1.489       .  S
O324        C326   1.270       .  A
O325       Ni336   1.919       .  S
C326        O332   1.292       .  A
C326        C599   1.475       .  S
C327        C743   1.488       .  S
H328        O329   0.967       .  S
O329       Ni337   1.887       .  S
O329       Ni331   1.883       .  S
O329       Ni336   1.902       .  S
O330       Ni331   1.929       .  S
Ni331       O335   1.902       .  S
Ni331       O333   1.927       .  S
O332       Ni337   1.984       .  S
C334        O335   1.266       .  A
C334       C1175   1.481       .  S
O339       Ni345   1.954       .  S
O339        C360   1.277       .  A
O340       Ni363   1.935       .  S
O340        C349   1.277       .  A
O341       Ni345   1.925       .  S
O341       Ni363   1.935       .  S
O341       Ni357   1.957       .  S
O341        H364   0.966       .  S
C342        O359   1.284       .  A
C342        O351   1.281       .  A
C342        C452   1.490       .  S
O343       Ni362   1.922       .  S
O343        C349   1.271       .  A
O344       Ni362   1.916       .  S
O344        C346   1.267       .  A
Ni345       O348   1.952       .  S
Ni345       O350   1.877       .  S
C346        O356   1.268       .  A
C346       C1295   1.488       .  S
O347       Ni363   1.918       .  S
O347        C353   1.268       .  A
O348        C353   1.277       .  A
C349        C503   1.491       .  S
O350        C352   1.268       .  A
O351       Ni362   1.935       .  S
C352        O358   1.292       .  A
C352        C671   1.474       .  S
C353        C551   1.498       .  S
H354        O355   0.966       .  S
O355       Ni363   1.900       .  S
O355       Ni357   1.875       .  S
O355       Ni362   1.907       .  S
O356       Ni357   1.920       .  S
Ni357       O361   1.887       .  S
Ni357       O359   1.938       .  S
O358       Ni363   1.979       .  S
C360        O361   1.263       .  A
C360       C1535   1.492       .  S
O365       Ni371   1.947   1_455  S
O365        C386   1.274       .  A
O366       Ni389   1.940       .  S
O366        C375   1.279       .  A
O367       Ni371   1.918   1_455  S
O367       Ni389   1.931       .  S
O367       Ni383   1.953       .  S
O367        H390   0.966       .  S
C368        O385   1.282       .  A
C368        O377   1.280       .  A
C368        C479   1.476       .  S
O369       Ni388   1.920       .  S
O369        C375   1.270       .  A
O370       Ni388   1.917       .  S
O370        C372   1.267       .  A
Ni371       O374   1.949       .  S
Ni371       O376   1.887       .  S
C372        O382   1.267       .  A
C372       C1148   1.484       .  S
O373       Ni389   1.905   1_655  S
O373        C379   1.263       .  A
O374        C379   1.274       .  A
C375        C428   1.495       .  S
O376        C378   1.272       .  A
O377       Ni388   1.926       .  S
C378        O384   1.299   1_655  A
C378        C716   1.485       .  S
C379        C575   1.492       .  S
H380        O381   0.967       .  S
O381       Ni389   1.887       .  S
O381       Ni383   1.873       .  S
O381       Ni388   1.904       .  S
O382       Ni383   1.918       .  S
Ni383       O387   1.890       .  S
Ni383       O385   1.924       .  S
O384       Ni389   1.999       .  S
C386        O387   1.264       .  A
C386       C1391   1.489       .  S
O391       Ni397   1.940       .  S
O391        C412   1.274   1_545  A
O392       Ni415   1.922       .  S
O392        C401   1.276   1_545  A
O393       Ni397   1.926       .  S
O393       Ni415   1.930       .  S
O393       Ni409   1.953   1_545  S
O393        H416   0.966   1_545  S
C394        O411   1.285       .  A
C394        O403   1.282       .  A
C394        C455   1.492       .  S
O395       Ni414   1.933       .  S
O395        C401   1.274       .  A
O396       Ni414   1.923       .  S
O396        C398   1.269       .  A
Ni397       O400   1.942       .  S
Ni397       O402   1.881       .  S
C398        O408   1.268       .  A
C398       C1556   1.492       .  S
O399       Ni415   1.905       .  S
O399        C405   1.264       .  A
O400        C405   1.274       .  A
C401        C431   1.489       .  S
O402        C404   1.269       .  A
O403       Ni414   1.936       .  S
C404        O410   1.294       .  A
C404        C524   1.482       .  S
C405        C647   1.486       .  S
H406        O407   0.966       .  S
O407       Ni415   1.889   1_565  S
O407       Ni409   1.873       .  S
O407       Ni414   1.905       .  S
O408       Ni409   1.923       .  S
Ni409       O413   1.888       .  S
Ni409       O411   1.935       .  S
O410       Ni415   1.985       .  S
C412        O413   1.264       .  A
C412       C1271   1.481       .  S
C417        C418   1.399   1_545  A
C417        C422   1.402   1_545  A
C417        H433   1.084       .  S
C418        C419   1.405       .  A
C418        H434   1.084       .  S
C419        C429   1.402       .  A
C419        C420   1.407       .  A
C420        C426   1.415       .  A
C420        C421   1.416       .  A
C421        C423   1.409       .  A
C421        C422   1.414       .  A
C422        C430   1.407       .  A
C423        C432   1.407       .  A
C423        C424   1.406       .  A
C424        C425   1.403       .  A
C424        H435   1.083       .  S
C425        C426   1.404       .  A
C425        H436   1.083   1_455  S
C426        C427   1.413       .  A
C427        C428   1.408       .  A
C427        H437   1.084       .  S
C428        C429   1.414       .  A
C429        H438   1.084       .  S
C430        C431   1.406       .  A
C430        H439   1.084   1_565  S
C431        C432   1.413       .  A
C432        H440   1.084       .  S
C441        C442   1.401       .  A
C441        C446   1.404       .  A
C441        H457   1.084       .  S
C442        C443   1.405       .  A
C442        H458   1.083       .  S
C443        C453   1.405       .  A
C443        C444   1.409       .  A
C444        C450   1.415       .  A
C444        C445   1.417       .  A
C445        C447   1.408       .  A
C445        C446   1.414       .  A
C446        C454   1.411       .  A
C447        C456   1.405       .  A
C447        C448   1.405       .  A
C448        C449   1.402       .  A
C448        H459   1.084       .  S
C449        C450   1.404       .  A
C449        H460   1.083       .  S
C450        C451   1.412       .  A
C451        C452   1.407       .  A
C451        H461   1.084       .  S
C452        C453   1.411       .  A
C453        H462   1.084       .  S
C454        C455   1.408       .  A
C454        H463   1.084       .  S
C455        C456   1.413       .  A
C456        H464   1.084       .  S
C465        C466   1.399       .  A
C465        C470   1.405       .  A
C465        H481   1.084       .  S
C466        C467   1.403       .  A
C466        H482   1.084       .  S
C467        C477   1.407       .  A
C467        C468   1.416       .  A
C468        C474   1.407       .  A
C468        C469   1.410       .  A
C469        C471   1.416       .  A
C469        C470   1.407       .  A
C470        C478   1.398       .  A
C471        C480   1.405       .  A
C471        C472   1.402       .  A
C472        C473   1.398       .  A
C472        H483   1.084       .  S
C473        C474   1.404       .  A
C473        H484   1.084       .  S
C474        C475   1.396       .  A
C475        C476   1.411       .  A
C475        H485   1.084       .  S
C476        C477   1.404       .  A
C477        H486   1.084       .  S
C478        C479   1.409       .  A
C478        H487   1.085       .  S
C479        C480   1.403       .  A
C480        H488   1.084       .  S
C489        C490   1.401       .  A
C489        C494   1.405       .  A
C489        H505   1.084       .  S
C490        C491   1.403       .  A
C490        H506   1.084       .  S
C491        C501   1.410       .  A
C491        C492   1.415       .  A
C492        C498   1.408       .  A
C492        C493   1.416       .  A
C493        C495   1.415       .  A
C493        C494   1.408       .  A
C494        C502   1.403       .  A
C495        C504   1.411       .  A
C495        C496   1.403       .  A
C496        C497   1.400       .  A
C496        H507   1.083       .  S
C497        C498   1.405       .  A
C497        H508   1.084       .  S
C498        C499   1.402       .  A
C499        C500   1.412       .  A
C499        H509   1.084       .  S
C500        C501   1.407       .  A
C501        H510   1.084       .  S
C502        C503   1.413       .  A
C502        H511   1.084       .  S
C503        C504   1.407       .  A
C504        H512   1.084       .  S
C513        C514   1.402       .  A
C513        C518   1.404       .  A
C513        H529   1.083       .  S
C514        C515   1.405       .  A
C514        H530   1.084       .  S
C515        C525   1.409       .  A
C515        C516   1.410       .  A
C516        C522   1.413       .  A
C516        C517   1.422       .  A
C517        C519   1.411       .  A
C517        C518   1.413       .  A
C518        C526   1.412       .  A
C519        C528   1.414       .  A
C519        C520   1.407       .  A
C520        C521   1.405       .  A
C520        H531   1.083       .  S
C521        C522   1.406       .  A
C521        H532   1.084       .  S
C522        C523   1.415       .  A
C523        C524   1.411       .  A
C523        H533   1.084       .  S
C524        C525   1.410       .  A
C525        H534   1.085       .  S
C526        C527   1.409       .  A
C526        H535   1.084       .  S
C527        C528   1.413       .  A
C528        H536   1.084       .  S
C537        C538   1.402       .  A
C537        C542   1.405       .  A
C537        H553   1.083       .  S
C538        C539   1.405       .  A
C538        H554   1.084       .  S
C539        C549   1.408       .  A
C539        C540   1.410       .  A
C540        C546   1.413       .  A
C540        C541   1.421       .  A
C541        C543   1.411       .  A
C541        C542   1.413       .  A
C542        C550   1.412       .  A
C543        C552   1.414       .  A
C543        C544   1.406       .  A
C544        C545   1.405       .  A
C544        H555   1.083       .  S
C545        C546   1.406       .  A
C545        H556   1.083       .  S
C546        C547   1.415       .  A
C547        C548   1.410       .  A
C547        H557   1.084       .  S
C548        C549   1.409       .  A
C549        H558   1.085       .  S
C550        C551   1.409       .  A
C550        H559   1.084       .  S
C551        C552   1.412       .  A
C552        H560   1.084       .  S
C561        C562   1.400       .  A
C561        C566   1.403       .  A
C561        H577   1.084       .  S
C562        C563   1.405       .  A
C562        H578   1.084       .  S
C563        C573   1.405       .  A
C563        C564   1.410       .  A
C564        C570   1.413       .  A
C564        C565   1.419       .  A
C565        C567   1.411       .  A
C565        C566   1.413       .  A
C566        C574   1.407       .  A
C567        C576   1.411       .  A
C567        C568   1.406       .  A
C568        C569   1.404       .  A
C568        H579   1.083       .  S
C569        C570   1.405       .  A
C569        H580   1.083   1_565  S
C570        C571   1.415       .  A
C571        C572   1.409       .  A
C571        H581   1.084   1_565  S
C572        C573   1.410       .  A
C573        H582   1.085       .  S
C574        C575   1.407       .  A
C574        H583   1.084       .  S
C575        C576   1.412       .  A
C576        H584   1.084       .  S
C585        C586   1.403       .  A
C585        C590   1.405       .  A
C585        H601   1.084       .  S
C586        C587   1.405       .  A
C586        H602   1.083       .  S
C587        C597   1.411       .  A
C587        C588   1.413       .  A
C588        C594   1.412       .  A
C588        C589   1.418       .  A
C589        C591   1.412       .  A
C589        C590   1.412       .  A
C590        C598   1.410       .  A
C591        C600   1.407       .  A
C591        C592   1.404       .  A
C592        C593   1.400       .  A
C592        H603   1.084       .  S
C593        C594   1.404       .  A
C593        H604   1.083       .  S
C594        C595   1.407       .  A
C595        C596   1.406       .  A
C595        H605   1.084       .  S
C596        C597   1.409       .  A
C597        H606   1.084       .  S
C598        C599   1.408       .  A
C598        H607   1.085       .  S
C599        C600   1.407       .  A
C600        H608   1.085       .  S
C609        C610   1.401       .  A
C609        C614   1.403       .  A
C609        H625   1.084       .  S
C610        C611   1.405       .  A
C610        H626   1.084       .  S
C611        C621   1.402       .  A
C611        C612   1.408       .  A
C612        C618   1.415       .  A
C612        C613   1.414       .  A
C613        C615   1.408       .  A
C613        C614   1.415       .  A
C614        C622   1.410       .  A
C615        C624   1.400       .  A
C615        C616   1.404       .  A
C616        C617   1.399       .  A
C616        H627   1.084       .  S
C617        C618   1.402       .  A
C617        H628   1.083       .  S
C618        C619   1.407       .  A
C619        C620   1.405       .  A
C619        H629   1.084       .  S
C620        C621   1.411       .  A
C621        H630   1.084       .  S
C622        C623   1.407       .  A
C622        H631   1.084       .  S
C623        C624   1.411       .  A
C624        H632   1.084       .  S
C633        C634   1.400       .  A
C633        C638   1.404       .  A
C633        H649   1.083       .  S
C634        C635   1.404       .  A
C634        H650   1.084       .  S
C635        C645   1.405       .  A
C635        C636   1.411       .  A
C636        C642   1.412       .  A
C636        C637   1.417       .  A
C637        C639   1.411       .  A
C637        C638   1.413       .  A
C638        C646   1.408       .  A
C639        C648   1.409       .  A
C639        C640   1.405       .  A
C640        C641   1.403       .  A
C640        H651   1.083       .  S
C641        C642   1.405       .  A
C641        H652   1.083   1_455  S
C642        C643   1.410       .  A
C643        C644   1.409       .  A
C643        H653   1.084   1_455  S
C644        C645   1.406       .  A
C645        H654   1.085       .  S
C646        C647   1.406       .  A
C646        H655   1.084       .  S
C647        C648   1.409       .  A
C648        H656   1.084       .  S
C657        C658   1.401       .  A
C657        C662   1.404       .  A
C657        H673   1.083       .  S
C658        C659   1.405       .  A
C658        H674   1.083       .  S
C659        C669   1.407       .  A
C659        C660   1.411       .  A
C660        C666   1.413       .  A
C660        C661   1.418       .  A
C661        C663   1.411       .  A
C661        C662   1.413       .  A
C662        C670   1.409       .  A
C663        C672   1.408       .  A
C663        C664   1.405       .  A
C664        C665   1.402       .  A
C664        H675   1.084       .  S
C665        C666   1.405       .  A
C665        H676   1.084       .  S
C666        C667   1.410       .  A
C667        C668   1.409       .  A
C667        H677   1.084       .  S
C668        C669   1.409       .  A
C669        H678   1.084       .  S
C670        C671   1.407       .  A
C670        H679   1.085       .  S
C671        C672   1.410       .  A
C672        H680   1.085       .  S
C681        C682   1.399       .  A
C681        C686   1.405       .  A
C681        H697   1.084       .  S
C682        C683   1.402       .  A
C682        H698   1.084       .  S
C683        C693   1.408       .  A
C683        C684   1.415       .  A
C684        C690   1.409       .  A
C684        C685   1.415       .  A
C685        C687   1.415       .  A
C685        C686   1.407       .  A
C686        C694   1.401       .  A
C687        C696   1.412       .  A
C687        C688   1.404       .  A
C688        C689   1.401       .  A
C688        H699   1.083       .  S
C689        C690   1.405       .  A
C689        H700   1.084       .  S
C690        C691   1.404       .  A
C691        C692   1.409       .  A
C691        H701   1.085       .  S
C692        C693   1.403       .  A
C693        H702   1.084       .  S
C694        C695   1.414       .  A
C694        H703   1.084       .  S
C695        C696   1.407       .  A
C696        H704   1.084       .  S
C705        C706   1.403       .  A
C705        C710   1.405       .  A
C705        H721   1.083       .  S
C706        C707   1.405       .  A
C706        H722   1.084       .  S
C707        C717   1.411       .  A
C707        C708   1.411       .  A
C708        C714   1.412       .  A
C708        C709   1.422       .  A
C709        C711   1.412       .  A
C709        C710   1.412       .  A
C710        C718   1.412       .  A
C711        C720   1.413       .  A
C711        C712   1.406       .  A
C712        C713   1.405       .  A
C712        H723   1.083       .  S
C713        C714   1.406       .  A
C713        H724   1.083   1_655  S
C714        C715   1.414       .  A
C715        C716   1.412       .  A
C715        H725   1.084   1_655  S
C716        C717   1.409       .  A
C717        H726   1.085       .  S
C718        C719   1.409       .  A
C718        H727   1.084       .  S
C719        C720   1.411       .  A
C720        H728   1.084       .  S
C729        C730   1.401       .  A
C729        C734   1.404       .  A
C729        H745   1.084       .  S
C730        C731   1.405       .  A
C730        H746   1.083       .  S
C731        C741   1.408       .  A
C731        C732   1.411       .  A
C732        C738   1.412       .  A
C732        C733   1.419       .  A
C733        C735   1.411       .  A
C733        C734   1.413       .  A
C734        C742   1.409       .  A
C735        C744   1.409       .  A
C735        C736   1.405       .  A
C736        C737   1.403       .  A
C736        H747   1.084       .  S
C737        C738   1.405       .  A
C737        H748   1.083       .  S
C738        C739   1.411       .  A
C739        C740   1.409       .  A
C739        H749   1.084       .  S
C740        C741   1.409       .  A
C741        H750   1.085       .  S
C742        C743   1.407       .  A
C742        H751   1.084       .  S
C743        C744   1.410       .  A
C744        H752   1.084       .  S
C753        C754   1.398       .  A
C753        C758   1.403       .  A
C753        H769   1.084       .  S
C754        C755   1.403       .  A
C754        H770   1.084       .  S
C755        C765   1.403       .  A
C755        C756   1.411       .  A
C756        C762   1.412       .  A
C756        C757   1.415       .  A
C757        C759   1.413       .  A
C757        C758   1.411       .  A
C758        C766   1.402       .  A
C759        C768   1.410       .  A
C759        C760   1.405       .  A
C760        C761   1.403       .  A
C760        H771   1.083       .  S
C761        C762   1.405       .  A
C761        H772   1.083       .  S
C762        C763   1.409       .  A
C763        C764   1.407       .  A
C763        H773   1.084       .  S
C764        C765   1.407       .  A
C765        H774   1.085       .  S
C766        C767   1.407       .  A
C766        H775   1.085       .  S
C767        C768   1.408       .  A
C768        H776   1.084       .  S
C777        C778   1.400       .  A
C777        C782   1.403       .  A
C777        H793   1.083       .  S
C778        C779   1.405       .  A
C778        H794   1.083       .  S
C779        C789   1.402       .  A
C779        C780   1.407       .  A
C780        C786   1.415       .  A
C780        C781   1.418       .  A
C781        C783   1.407       .  A
C781        C782   1.416       .  A
C782        C790   1.411       .  A
C783        C792   1.405       .  A
C783        C784   1.406       .  A
C784        C785   1.403       .  A
C784        H795   1.084       .  S
C785        C786   1.404       .  A
C785        H796   1.083   1_655  S
C786        C787   1.414       .  A
C787        C788   1.409       .  A
C787        H797   1.084   1_655  S
C788        C789   1.412       .  A
C789        H798   1.084       .  S
C790        C791   1.406       .  A
C790        H799   1.084       .  S
C791        C792   1.415       .  A
C792        H800   1.084       .  S
C801        C802   1.396   1_554  A
C801        C806   1.403       .  A
C801        H817   1.084       .  S
C802        C803   1.403       .  A
C802        H818   1.084       .  S
C803        C813   1.399       .  A
C803        C804   1.410   1_556  A
C804        C810   1.412       .  A
C804        C805   1.414       .  A
C805        C807   1.412       .  A
C805        C806   1.410       .  A
C806        C814   1.398       .  A
C807        C816   1.410       .  A
C807        C808   1.405       .  A
C808        C809   1.403       .  A
C808        H819   1.083       .  S
C809        C810   1.405       .  A
C809        H820   1.083   1_655  S
C810        C811   1.411       .  A
C811        C812   1.409   1_554  A
C811        H821   1.084       .  S
C812        C813   1.408       .  A
C813        H822   1.085       .  S
C814        C815   1.409       .  A
C814        H823   1.084       .  S
C815        C816   1.410       .  A
C816        H824   1.084       .  S
C825        C826   1.395       .  A
C825        C830   1.402       .  A
C825        H841   1.084       .  S
C826        C827   1.402   1_554  A
C826        H842   1.084       .  S
C827        C837   1.397       .  A
C827        C828   1.410       .  A
C828        C834   1.412       .  A
C828        C829   1.413   1_556  A
C829        C831   1.412       .  A
C829        C830   1.410       .  A
C830        C838   1.397       .  A
C831        C840   1.411       .  A
C831        C832   1.406   1_554  A
C832        C833   1.404       .  A
C832        H843   1.083       .  S
C833        C834   1.406       .  A
C833        H844   1.083       .  S
C834        C835   1.412       .  A
C835        C836   1.411       .  A
C835        H845   1.084       .  S
C836        C837   1.408       .  A
C837        H846   1.084       .  S
C838        C839   1.407       .  A
C838        H847   1.085       .  S
C839        C840   1.410       .  A
C840        H848   1.084       .  S
C849        C850   1.399       .  A
C849        C854   1.404       .  A
C849        H865   1.084       .  S
C850        C851   1.402       .  A
C850        H866   1.083       .  S
C851        C861   1.409       .  A
C851        C852   1.416       .  A
C852        C858   1.407       .  A
C852        C853   1.413       .  A
C853        C855   1.416       .  A
C853        C854   1.407       .  A
C854        C862   1.400       .  A
C855        C864   1.410       .  A
C855        C856   1.403       .  A
C856        C857   1.400       .  A
C856        H867   1.084   1_655  S
C857        C858   1.405       .  A
C857        H868   1.084       .  S
C858        C859   1.400       .  A
C859        C860   1.412       .  A
C859        H869   1.084       .  S
C860        C861   1.405       .  A
C861        H870   1.084       .  S
C862        C863   1.410       .  A
C862        H871   1.084       .  S
C863        C864   1.406       .  A
C864        H872   1.084   1_655  S
C873        C874   1.407       .  A
C873        C878   1.407       .  A
C873        H889   1.083       .  S
C874        C875   1.407       .  A
C874        H890   1.083   1_655  S
C875        C885   1.417       .  A
C875        C876   1.413       .  A
C876        C882   1.408       .  A
C876        C877   1.415       .  A
C877        C879   1.410       .  A
C877        C878   1.411       .  A
C878        C886   1.414       .  A
C879        C888   1.396       .  A
C879        C880   1.401       .  A
C880        C881   1.393       .  A
C880        H891   1.084       .  S
C881        C882   1.402       .  A
C881        H892   1.084       .  S
C882        C883   1.395       .  A
C883        C884   1.409       .  A
C883        H893   1.084       .  S
C884        C885   1.413       .  A
C885        H894   1.084   1_655  S
C886        C887   1.412       .  A
C886        H895   1.084       .  S
C887        C888   1.407       .  A
C888        H896   1.084       .  S
C897        C898   1.397       .  A
C897        C902   1.403       .  A
C897        H913   1.084       .  S
C898        C899   1.404       .  A
C898        H914   1.084       .  S
C899        C909   1.402       .  A
C899        C900   1.411       .  A
C900        C906   1.411       .  A
C900        C901   1.414       .  A
C901        C903   1.414       .  A
C901        C902   1.410       .  A
C902        C910   1.399       .  A
C903        C912   1.410       .  A
C903        C904   1.404       .  A
C904        C905   1.403       .  A
C904        H915   1.083       .  S
C905        C906   1.405       .  A
C905        H916   1.083       .  S
C906        C907   1.409       .  A
C907        C908   1.411       .  A
C907        H917   1.084       .  S
C908        C909   1.410       .  A
C909        H918   1.084       .  S
C910        C911   1.407       .  A
C910        H919   1.085       .  S
C911        C912   1.406       .  A
C912        H920   1.084       .  S
C921        C922   1.404       .  A
C921        C926   1.406       .  A
C921        H937   1.083       .  S
C922        C923   1.405   1_556  A
C922        H938   1.083       .  S
C923        C933   1.413       .  A
C923        C924   1.413       .  A
C924        C930   1.410       .  A
C924        C925   1.415   1_554  A
C925        C927   1.411       .  A
C925        C926   1.411       .  A
C926        C934   1.410       .  A
C927        C936   1.401       .  A
C927        C928   1.403   1_556  A
C928        C929   1.397       .  A
C928        H939   1.084       .  S
C929        C930   1.403       .  A
C929        H940   1.084       .  S
C930        C931   1.400       .  A
C931        C932   1.408       .  A
C931        H941   1.085       .  S
C932        C933   1.409       .  A
C933        H942   1.084       .  S
C934        C935   1.411       .  A
C934        H943   1.084       .  S
C935        C936   1.409       .  A
C936        H944   1.084       .  S
C945        C946   1.396   1_554  A
C945        C950   1.402       .  A
C945        H961   1.084       .  S
C946        C947   1.403   1_556  A
C946        H962   1.084       .  S
C947        C957   1.399   1_554  A
C947        C948   1.409       .  A
C948        C954   1.414       .  A
C948        C949   1.418       .  A
C949        C951   1.411       .  A
C949        C950   1.411       .  A
C950        C958   1.402       .  A
C951        C960   1.416       .  A
C951        C952   1.407       .  A
C952        C953   1.407       .  A
C952        H963   1.083       .  S
C953        C954   1.407       .  A
C953        H964   1.083       .  S
C954        C955   1.418       .  A
C955        C956   1.412   1_554  A
C955        H965   1.084       .  S
C956        C957   1.408       .  A
C957        H966   1.085       .  S
C958        C959   1.409       .  A
C958        H967   1.084       .  S
C959        C960   1.415       .  A
C960        H968   1.084       .  S
C969        C970   1.400       .  A
C969        C974   1.404       .  A
C969        H985   1.084       .  S
C970        C971   1.404       .  A
C970        H986   1.084       .  S
C971        C981   1.405       .  A
C971        C972   1.412       .  A
C972        C978   1.413       .  A
C972        C973   1.416       .  A
C973        C975   1.413       .  A
C973        C974   1.411       .  A
C974        C982   1.405       .  A
C975        C984   1.409       .  A
C975        C976   1.404       .  A
C976        C977   1.402       .  A
C976        H987   1.083       .  S
C977        C978   1.404       .  A
C977        H988   1.083       .  S
C978        C979   1.408       .  A
C979        C980   1.406       .  A
C979        H989   1.084       .  S
C980        C981   1.408       .  A
C981        H990   1.085       .  S
C982        C983   1.408       .  A
C982        H991   1.085       .  S
C983        C984   1.407       .  A
C984        H992   1.084       .  S
C993        C994   1.401       .  A
C993        C998   1.406       .  A
C993       H1009   1.084       .  S
C994        C995   1.403       .  A
C994       H1010   1.084       .  S
C995       C1005   1.410       .  A
C995        C996   1.415       .  A
C996       C1002   1.408       .  A
C996        C997   1.415       .  A
C997        C999   1.415       .  A
C997        C998   1.408       .  A
C998       C1006   1.404       .  A
C999       C1008   1.409       .  A
C999       C1000   1.403       .  A
C1000      C1001   1.400       .  A
C1000      H1011   1.083       .  S
C1001      C1002   1.404       .  A
C1001      H1012   1.084       .  S
C1002      C1003   1.401       .  A
C1003      C1004   1.409       .  A
C1003      H1013   1.085       .  S
C1004      C1005   1.406       .  A
C1005      H1014   1.084       .  S
C1006      C1007   1.411       .  A
C1006      H1015   1.084       .  S
C1007      C1008   1.406       .  A
C1008      H1016   1.084       .  S
C1017      C1018   1.398       .  A
C1017      C1022   1.402       .  A
C1017      H1033   1.084       .  S
C1018      C1019   1.404       .  A
C1018      H1034   1.084       .  S
C1019      C1029   1.398       .  A
C1019      C1020   1.408       .  A
C1020      C1026   1.415       .  A
C1020      C1021   1.412       .  A
C1021      C1023   1.408       .  A
C1021      C1022   1.415       .  A
C1022      C1030   1.404       .  A
C1023      C1032   1.401       .  A
C1023      C1024   1.405       .  A
C1024      C1025   1.400       .  A
C1024      H1035   1.084       .  S
C1025      C1026   1.403       .  A
C1025      H1036   1.083       .  S
C1026      C1027   1.409       .  A
C1027      C1028   1.406       .  A
C1027      H1037   1.084       .  S
C1028      C1029   1.410       .  A
C1029      H1038   1.084       .  S
C1030      C1031   1.403       .  A
C1030      H1039   1.084       .  S
C1031      C1032   1.410       .  A
C1032      H1040   1.084       .  S
C1041      C1042   1.402       .  A
C1041      C1046   1.404       .  A
C1041      H1057   1.083       .  S
C1042      C1043   1.405       .  A
C1042      H1058   1.083       .  S
C1043      C1053   1.408       .  A
C1043      C1044   1.412       .  A
C1044      C1050   1.410       .  A
C1044      C1045   1.413       .  A
C1045      C1047   1.410       .  A
C1045      C1046   1.413       .  A
C1046      C1054   1.409       .  A
C1047      C1056   1.399       .  A
C1047      C1048   1.403       .  A
C1048      C1049   1.397       .  A
C1048      H1059   1.084       .  S
C1049      C1050   1.403       .  A
C1049      H1060   1.084       .  S
C1050      C1051   1.400       .  A
C1051      C1052   1.409       .  A
C1051      H1061   1.084       .  S
C1052      C1053   1.410       .  A
C1053      H1062   1.084       .  S
C1054      C1055   1.407       .  A
C1054      H1063   1.084       .  S
C1055      C1056   1.408       .  A
C1056      H1064   1.085       .  S
C1065      C1066   1.397       .  A
C1065      C1070   1.403       .  A
C1065      H1081   1.084       .  S
C1066      C1067   1.403       .  A
C1066      H1082   1.084       .  S
C1067      C1077   1.402       .  A
C1067      C1068   1.412       .  A
C1068      C1074   1.410       .  A
C1068      C1069   1.416       .  A
C1069      C1071   1.414       .  A
C1069      C1070   1.409       .  A
C1070      C1078   1.399       .  A
C1071      C1080   1.415       .  A
C1071      C1072   1.406       .  A
C1072      C1073   1.405       .  A
C1072      H1083   1.083       .  S
C1073      C1074   1.406       .  A
C1073      H1084   1.083       .  S
C1074      C1075   1.411       .  A
C1075      C1076   1.413       .  A
C1075      H1085   1.084       .  S
C1076      C1077   1.409       .  A
C1077      H1086   1.084       .  S
C1078      C1079   1.409       .  A
C1078      H1087   1.085       .  S
C1079      C1080   1.410       .  A
C1080      H1088   1.084       .  S
C1089      C1090   1.402       .  A
C1089      C1094   1.404       .  A
C1089      H1105   1.083       .  S
C1090      C1091   1.405       .  A
C1090      H1106   1.083       .  S
C1091      C1101   1.410       .  A
C1091      C1092   1.412       .  A
C1092      C1098   1.411       .  A
C1092      C1093   1.419       .  A
C1093      C1095   1.413       .  A
C1093      C1094   1.411       .  A
C1094      C1102   1.408       .  A
C1095      C1104   1.412       .  A
C1095      C1096   1.405       .  A
C1096      C1097   1.403       .  A
C1096      H1107   1.084       .  S
C1097      C1098   1.406       .  A
C1097      H1108   1.084       .  S
C1098      C1099   1.410       .  A
C1099      C1100   1.410       .  A
C1099      H1109   1.085       .  S
C1100      C1101   1.408       .  A
C1101      H1110   1.085       .  S
C1102      C1103   1.409       .  A
C1102      H1111   1.084       .  S
C1103      C1104   1.409       .  A
C1104      H1112   1.084       .  S
C1113      C1114   1.402       .  A
C1113      C1118   1.405       .  A
C1113      H1129   1.084       .  S
C1114      C1115   1.405       .  A
C1114      H1130   1.084       .  S
C1115      C1125   1.410       .  A
C1115      C1116   1.412       .  A
C1116      C1122   1.413       .  A
C1116      C1117   1.418       .  A
C1117      C1119   1.412       .  A
C1117      C1118   1.412       .  A
C1118      C1126   1.409       .  A
C1119      C1128   1.408       .  A
C1119      C1120   1.404       .  A
C1120      C1121   1.402       .  A
C1120      H1131   1.084       .  S
C1121      C1122   1.405       .  A
C1121      H1132   1.083       .  S
C1122      C1123   1.410       .  A
C1123      C1124   1.408       .  A
C1123      H1133   1.084       .  S
C1124      C1125   1.409       .  A
C1125      H1134   1.084       .  S
C1126      C1127   1.409       .  A
C1126      H1135   1.085       .  S
C1127      C1128   1.407       .  A
C1128      H1136   1.085       .  S
C1137      C1138   1.402       .  A
C1137      C1142   1.405       .  A
C1137      H1153   1.083   1_565  S
C1138      C1139   1.405       .  A
C1138      H1154   1.083   1_565  S
C1139      C1149   1.409       .  A
C1139      C1140   1.412       .  A
C1140      C1146   1.410       .  A
C1140      C1141   1.411       .  A
C1141      C1143   1.410       .  A
C1141      C1142   1.412       .  A
C1142      C1150   1.408       .  A
C1143      C1152   1.396   1_554  A
C1143      C1144   1.402   1_554  A
C1144      C1145   1.395   1_556  A
C1144      H1155   1.084       .  S
C1145      C1146   1.403       .  A
C1145      H1156   1.084       .  S
C1146      C1147   1.397       .  A
C1147      C1148   1.409       .  A
C1147      H1157   1.084       .  S
C1148      C1149   1.409       .  A
C1149      H1158   1.084       .  S
C1150      C1151   1.408   1_554  A
C1150      H1159   1.084   1_565  S
C1151      C1152   1.407       .  A
C1152      H1160   1.085       .  S
C1161      C1162   1.401       .  A
C1161      C1166   1.404       .  A
C1161      H1177   1.083       .  S
C1162      C1163   1.404       .  A
C1162      H1178   1.083       .  S
C1163      C1173   1.408       .  A
C1163      C1164   1.411       .  A
C1164      C1170   1.411       .  A
C1164      C1165   1.415   1_556  A
C1165      C1167   1.411       .  A
C1165      C1166   1.413   1_554  A
C1166      C1174   1.409   1_556  A
C1167      C1176   1.405       .  A
C1167      C1168   1.404       .  A
C1168      C1169   1.400       .  A
C1168      H1179   1.084       .  S
C1169      C1170   1.404   1_554  A
C1169      H1180   1.084       .  S
C1170      C1171   1.404       .  A
C1171      C1172   1.411       .  A
C1171      H1181   1.084       .  S
C1172      C1173   1.409       .  A
C1173      H1182   1.084       .  S
C1174      C1175   1.405       .  A
C1174      H1183   1.084       .  S
C1175      C1176   1.408       .  A
C1176      H1184   1.085       .  S
C1185      C1186   1.404       .  A
C1185      C1190   1.405       .  A
C1185      H1201   1.083   1_565  S
C1186      C1187   1.406       .  A
C1186      H1202   1.083       .  S
C1187      C1197   1.412       .  A
C1187      C1188   1.412       .  A
C1188      C1194   1.412       .  A
C1188      C1189   1.417       .  A
C1189      C1191   1.410       .  A
C1189      C1190   1.413       .  A
C1190      C1198   1.413       .  A
C1191      C1200   1.404       .  A
C1191      C1192   1.404       .  A
C1192      C1193   1.399       .  A
C1192      H1203   1.084       .  S
C1193      C1194   1.403       .  A
C1193      H1204   1.084       .  S
C1194      C1195   1.405       .  A
C1195      C1196   1.406       .  A
C1195      H1205   1.085       .  S
C1196      C1197   1.410       .  A
C1197      H1206   1.084       .  S
C1198      C1199   1.407       .  A
C1198      H1207   1.084   1_565  S
C1199      C1200   1.409       .  A
C1200      H1208   1.085       .  S
C1209      C1210   1.405       .  A
C1209      C1214   1.406       .  A
C1209      H1225   1.083       .  S
C1210      C1211   1.405       .  A
C1210      H1226   1.083       .  S
C1211      C1221   1.415       .  A
C1211      C1212   1.414       .  A
C1212      C1218   1.410       .  A
C1212      C1213   1.419       .  A
C1213      C1215   1.413       .  A
C1213      C1214   1.411       .  A
C1214      C1222   1.413       .  A
C1215      C1224   1.408       .  A
C1215      C1216   1.404       .  A
C1216      C1217   1.400       .  A
C1216      H1227   1.084       .  S
C1217      C1218   1.404       .  A
C1217      H1228   1.084       .  S
C1218      C1219   1.404       .  A
C1219      C1220   1.410       .  A
C1219      H1229   1.086       .  S
C1220      C1221   1.409       .  A
C1221      H1230   1.084       .  S
C1222      C1223   1.411       .  A
C1222      H1231   1.084       .  S
C1223      C1224   1.407       .  A
C1224      H1232   1.085       .  S
C1233      C1234   1.400       .  A
C1233      C1238   1.403       .  A
C1233      H1249   1.084       .  S
C1234      C1235   1.405       .  A
C1234      H1250   1.084       .  S
C1235      C1245   1.401       .  A
C1235      C1236   1.408       .  A
C1236      C1242   1.415       .  A
C1236      C1237   1.414       .  A
C1237      C1239   1.408       .  A
C1237      C1238   1.415       .  A
C1238      C1246   1.408       .  A
C1239      C1248   1.402       .  A
C1239      C1240   1.405       .  A
C1240      C1241   1.400       .  A
C1240      H1251   1.084       .  S
C1241      C1242   1.403       .  A
C1241      H1252   1.084   1_565  S
C1242      C1243   1.408       .  A
C1243      C1244   1.405       .  A
C1243      H1253   1.084   1_565  S
C1244      C1245   1.412       .  A
C1245      H1254   1.084       .  S
C1246      C1247   1.405       .  A
C1246      H1255   1.084       .  S
C1247      C1248   1.412       .  A
C1248      H1256   1.084       .  S
C1257      C1258   1.398       .  A
C1257      C1262   1.403       .  A
C1257      H1273   1.084       .  S
C1258      C1259   1.404       .  A
C1258      H1274   1.084       .  S
C1259      C1269   1.403       .  A
C1259      C1260   1.411       .  A
C1260      C1266   1.411       .  A
C1260      C1261   1.413       .  A
C1261      C1263   1.413       .  A
C1261      C1262   1.410       .  A
C1262      C1270   1.399       .  A
C1263      C1272   1.409       .  A
C1263      C1264   1.404       .  A
C1264      C1265   1.401       .  A
C1264      H1275   1.083   1_565  S
C1265      C1266   1.405       .  A
C1265      H1276   1.083       .  S
C1266      C1267   1.406       .  A
C1267      C1268   1.410       .  A
C1267      H1277   1.084       .  S
C1268      C1269   1.410       .  A
C1269      H1278   1.084       .  S
C1270      C1271   1.408       .  A
C1270      H1279   1.085       .  S
C1271      C1272   1.407       .  A
C1272      H1280   1.084   1_565  S
C1281      C1282   1.402       .  A
C1281      C1286   1.405       .  A
C1281      H1297   1.083       .  S
C1282      C1283   1.404       .  A
C1282      H1298   1.083       .  S
C1283      C1293   1.410       .  A
C1283      C1284   1.413       .  A
C1284      C1290   1.410       .  A
C1284      C1285   1.413       .  A
C1285      C1287   1.411       .  A
C1285      C1286   1.411       .  A
C1286      C1294   1.408       .  A
C1287      C1296   1.400       .  A
C1287      C1288   1.403       .  A
C1288      C1289   1.397       .  A
C1288      H1299   1.084       .  S
C1289      C1290   1.403       .  A
C1289      H1300   1.084       .  S
C1290      C1291   1.398       .  A
C1291      C1292   1.406       .  A
C1291      H1301   1.085       .  S
C1292      C1293   1.406       .  A
C1293      H1302   1.084       .  S
C1294      C1295   1.410       .  A
C1294      H1303   1.084       .  S
C1295      C1296   1.409       .  A
C1296      H1304   1.084       .  S
C1305      C1306   1.403       .  A
C1305      C1310   1.405       .  A
C1305      H1321   1.084       .  S
C1306      C1307   1.405       .  A
C1306      H1322   1.083       .  S
C1307      C1317   1.412       .  A
C1307      C1308   1.413       .  A
C1308      C1314   1.410       .  A
C1308      C1309   1.418       .  A
C1309      C1311   1.413       .  A
C1309      C1310   1.410       .  A
C1310      C1318   1.408       .  A
C1311      C1320   1.409       .  A
C1311      C1312   1.404       .  A
C1312      C1313   1.401       .  A
C1312      H1323   1.083   1_455  S
C1313      C1314   1.405       .  A
C1313      H1324   1.083       .  S
C1314      C1315   1.407       .  A
C1315      C1316   1.410       .  A
C1315      H1325   1.084       .  S
C1316      C1317   1.411       .  A
C1317      H1326   1.084       .  S
C1318      C1319   1.409       .  A
C1318      H1327   1.085       .  S
C1319      C1320   1.407       .  A
C1320      H1328   1.085   1_455  S
C1329      C1330   1.401       .  A
C1329      C1334   1.404       .  A
C1329      H1345   1.084       .  S
C1330      C1331   1.405       .  A
C1330      H1346   1.084       .  S
C1331      C1341   1.408       .  A
C1331      C1332   1.411       .  A
C1332      C1338   1.413       .  A
C1332      C1333   1.419       .  A
C1333      C1335   1.411       .  A
C1333      C1334   1.412       .  A
C1334      C1342   1.409       .  A
C1335      C1344   1.411       .  A
C1335      C1336   1.406       .  A
C1336      C1337   1.404       .  A
C1336      H1347   1.083       .  S
C1337      C1338   1.405       .  A
C1337      H1348   1.083       .  S
C1338      C1339   1.412       .  A
C1339      C1340   1.409       .  A
C1339      H1349   1.084       .  S
C1340      C1341   1.409       .  A
C1341      H1350   1.085       .  S
C1342      C1343   1.409       .  A
C1342      H1351   1.084       .  S
C1343      C1344   1.413       .  A
C1344      H1352   1.084       .  S
C1353      C1354   1.398       .  A
C1353      C1358   1.404       .  A
C1353      H1369   1.084       .  S
C1354      C1355   1.403       .  A
C1354      H1370   1.084       .  S
C1355      C1365   1.403       .  A
C1355      C1356   1.411       .  A
C1356      C1362   1.412       .  A
C1356      C1357   1.417       .  A
C1357      C1359   1.413       .  A
C1357      C1358   1.411       .  A
C1358      C1366   1.403       .  A
C1359      C1368   1.414       .  A
C1359      C1360   1.406       .  A
C1360      C1361   1.405       .  A
C1360      H1371   1.083       .  S
C1361      C1362   1.406       .  A
C1361      H1372   1.084       .  S
C1362      C1363   1.412       .  A
C1363      C1364   1.411       .  A
C1363      H1373   1.084       .  S
C1364      C1365   1.408       .  A
C1365      H1374   1.084       .  S
C1366      C1367   1.409       .  A
C1366      H1375   1.085       .  S
C1367      C1368   1.409       .  A
C1368      H1376   1.084       .  S
C1377      C1378   1.405       .  A
C1377      C1382   1.406       .  A
C1377      H1393   1.083       .  S
C1378      C1379   1.406       .  A
C1378      H1394   1.083       .  S
C1379      C1389   1.412       .  A
C1379      C1380   1.411       .  A
C1380      C1386   1.410       .  A
C1380      C1381   1.416   1_556  A
C1381      C1383   1.409       .  A
C1381      C1382   1.413   1_554  A
C1382      C1390   1.414   1_556  A
C1383      C1392   1.398       .  A
C1383      C1384   1.403       .  A
C1384      C1385   1.396       .  A
C1384      H1395   1.084       .  S
C1385      C1386   1.403   1_554  A
C1385      H1396   1.084       .  S
C1386      C1387   1.400       .  A
C1387      C1388   1.410       .  A
C1387      H1397   1.084       .  S
C1388      C1389   1.412       .  A
C1389      H1398   1.084       .  S
C1390      C1391   1.410       .  A
C1390      H1399   1.084       .  S
C1391      C1392   1.409       .  A
C1392      H1400   1.085       .  S
C1401      C1402   1.402       .  A
C1401      C1406   1.405       .  A
C1401      H1417   1.083       .  S
C1402      C1403   1.404       .  A
C1402      H1418   1.083       .  S
C1403      C1413   1.409       .  A
C1403      C1404   1.413       .  A
C1404      C1410   1.409       .  A
C1404      C1405   1.412       .  A
C1405      C1407   1.411       .  A
C1405      C1406   1.411       .  A
C1406      C1414   1.408       .  A
C1407      C1416   1.399       .  A
C1407      C1408   1.403       .  A
C1408      C1409   1.396   1_554  A
C1408      H1419   1.084       .  S
C1409      C1410   1.403   1_556  A
C1409      H1420   1.084       .  S
C1410      C1411   1.396   1_554  A
C1411      C1412   1.409       .  A
C1411      H1421   1.085       .  S
C1412      C1413   1.408   1_556  A
C1413      H1422   1.084       .  S
C1414      C1415   1.410       .  A
C1414      H1423   1.084       .  S
C1415      C1416   1.408       .  A
C1416      H1424   1.084       .  S
C1425      C1426   1.400       .  A
C1425      C1430   1.404       .  A
C1425      H1441   1.084       .  S
C1426      C1427   1.404       .  A
C1426      H1442   1.084       .  S
C1427      C1437   1.406       .  A
C1427      C1428   1.412       .  A
C1428      C1434   1.412       .  A
C1428      C1429   1.416       .  A
C1429      C1431   1.412       .  A
C1429      C1430   1.411       .  A
C1430      C1438   1.404       .  A
C1431      C1440   1.410       .  A
C1431      C1432   1.405       .  A
C1432      C1433   1.403       .  A
C1432      H1443   1.083   1_655  S
C1433      C1434   1.405       .  A
C1433      H1444   1.083       .  S
C1434      C1435   1.409       .  A
C1435      C1436   1.408       .  A
C1435      H1445   1.084       .  S
C1436      C1437   1.406       .  A
C1437      H1446   1.085       .  S
C1438      C1439   1.406       .  A
C1438      H1447   1.085       .  S
C1439      C1440   1.408       .  A
C1440      H1448   1.084   1_655  S
C1449      C1450   1.401       .  A
C1449      C1454   1.404       .  A
C1449      H1465   1.083       .  S
C1450      C1451   1.404       .  A
C1450      H1466   1.083       .  S
C1451      C1461   1.406       .  A
C1451      C1452   1.410       .  A
C1452      C1458   1.414       .  A
C1452      C1453   1.419       .  A
C1453      C1455   1.410       .  A
C1453      C1454   1.413       .  A
C1454      C1462   1.410       .  A
C1455      C1464   1.410       .  A
C1455      C1456   1.406       .  A
C1456      C1457   1.404       .  A
C1456      H1467   1.084       .  S
C1457      C1458   1.406       .  A
C1457      H1468   1.084       .  S
C1458      C1459   1.414       .  A
C1459      C1460   1.410       .  A
C1459      H1469   1.084       .  S
C1460      C1461   1.408       .  A
C1461      H1470   1.084       .  S
C1462      C1463   1.407       .  A
C1462      H1471   1.085       .  S
C1463      C1464   1.411       .  A
C1464      H1472   1.085       .  S
C1473      C1474   1.399       .  A
C1473      C1478   1.404       .  A
C1473      H1489   1.084       .  S
C1474      C1475   1.402       .  A
C1474      H1490   1.084       .  S
C1475      C1485   1.407       .  A
C1475      C1476   1.415       .  A
C1476      C1482   1.407       .  A
C1476      C1477   1.412       .  A
C1477      C1479   1.415       .  A
C1477      C1478   1.408       .  A
C1478      C1486   1.399       .  A
C1479      C1488   1.408       .  A
C1479      C1480   1.403       .  A
C1480      C1481   1.400       .  A
C1480      H1491   1.084       .  S
C1481      C1482   1.405       .  A
C1481      H1492   1.084       .  S
C1482      C1483   1.400       .  A
C1483      C1484   1.411       .  A
C1483      H1493   1.084       .  S
C1484      C1485   1.404       .  A
C1485      H1494   1.084       .  S
C1486      C1487   1.409       .  A
C1486      H1495   1.085       .  S
C1487      C1488   1.405       .  A
C1488      H1496   1.084       .  S
C1497      C1498   1.401       .  A
C1497      C1502   1.405       .  A
C1497      H1513   1.084       .  S
C1498      C1499   1.404       .  A
C1498      H1514   1.083       .  S
C1499      C1509   1.412       .  A
C1499      C1500   1.415       .  A
C1500      C1506   1.408       .  A
C1500      C1501   1.416       .  A
C1501      C1503   1.415       .  A
C1501      C1502   1.408       .  A
C1502      C1510   1.403       .  A
C1503      C1512   1.410       .  A
C1503      C1504   1.403       .  A
C1504      C1505   1.400       .  A
C1504      H1515   1.083       .  S
C1505      C1506   1.405       .  A
C1505      H1516   1.083       .  S
C1506      C1507   1.403       .  A
C1507      C1508   1.412       .  A
C1507      H1517   1.084       .  S
C1508      C1509   1.408       .  A
C1509      H1518   1.084       .  S
C1510      C1511   1.412       .  A
C1510      H1519   1.084       .  S
C1511      C1512   1.406       .  A
C1512      H1520   1.084       .  S
C1521      C1522   1.398       .  A
C1521      C1526   1.404       .  A
C1521      H1537   1.084       .  S
C1522      C1523   1.404       .  A
C1522      H1538   1.084       .  S
C1523      C1533   1.402       .  A
C1523      C1524   1.410       .  A
C1524      C1530   1.412       .  A
C1524      C1525   1.416       .  A
C1525      C1527   1.413       .  A
C1525      C1526   1.409       .  A
C1526      C1534   1.401       .  A
C1527      C1536   1.412       .  A
C1527      C1528   1.405       .  A
C1528      C1529   1.403       .  A
C1528      H1539   1.083       .  S
C1529      C1530   1.405       .  A
C1529      H1540   1.083       .  S
C1530      C1531   1.410       .  A
C1531      C1532   1.410       .  A
C1531      H1541   1.084       .  S
C1532      C1533   1.411       .  A
C1533      H1542   1.084       .  S
C1534      C1535   1.412       .  A
C1534      H1543   1.084       .  S
C1535      C1536   1.409       .  A
C1536      H1544   1.084       .  S
C1545      C1546   1.397       .  A
C1545      C1550   1.403       .  A
C1545      H1561   1.084       .  S
C1546      C1547   1.403       .  A
C1546      H1562   1.084       .  S
C1547      C1557   1.401       .  A
C1547      C1548   1.410       .  A
C1548      C1554   1.412       .  A
C1548      C1549   1.416       .  A
C1549      C1551   1.412       .  A
C1549      C1550   1.409       .  A
C1550      C1558   1.400       .  A
C1551      C1560   1.413       .  A
C1551      C1552   1.406       .  A
C1552      C1553   1.404       .  A
C1552      H1563   1.083       .  S
C1553      C1554   1.405       .  A
C1553      H1564   1.083       .  S
C1554      C1555   1.411       .  A
C1555      C1556   1.411       .  A
C1555      H1565   1.084       .  S
C1556      C1557   1.411       .  A
C1557      H1566   1.084       .  S
C1558      C1559   1.411       .  A
C1558      H1567   1.084       .  S
C1559      C1560   1.411       .  A
C1560      H1568   1.084       .  S
