geometry optimzed in LAMMPS
_audit_creation_date              2020-12-01 
_audit_creation_method            'lammps2cif' 
_symmetry_space_group_name_H-M    'P1' 
_symmetry_Int_Tables_number       1 
_symmetry_cell_setting            triclinic 
loop_ 
_symmetry_equiv_pos_as_xyz 
  x,y,z 
_cell_length_a                    105.63917983 
_cell_length_b                    103.82252625780242 
_cell_length_c                    42.40908592726547 
_cell_angle_alpha                 90.39865621660233 
_cell_angle_beta                  90.39819716351887 
_cell_angle_gamma                 123.35594519802338 
loop_ 
_atom_site_label 
_atom_site_type_symbol 
_atom_site_fract_x 
_atom_site_fract_y 
_atom_site_fract_z 
_atom_site_charge 
N1          N  0.54438144  0.97829360  0.51349631    -0.27300
N2          N  0.54939438  0.98704284  0.53927616    -0.35200
C3          C  0.54224833  0.99438889  0.54232889     0.01000
C4          C  0.53210857  0.99012903  0.51741630     0.07000
C5          C  0.53373368  0.97982403  0.49959950    -0.06100
H6          H  0.54392970  0.00184199  0.56208712     0.07700
H7          H  0.52762202  0.97385693  0.47818441     0.08900
Cu8        Cu  0.56424185  0.98751246  0.57214832     0.44200
Cu9        Cu  0.55238994  0.96459656  0.49937167     0.42000
Cu10       Cu  0.57059537  0.95745061  0.56417191     0.43900
N11         N  0.57384847  0.98195174  0.60780608    -0.34700
N12         N  0.57495169  0.96989839  0.60601168    -0.29000
C13         C  0.57944467  0.96787274  0.63433598    -0.05100
C14         C  0.58158355  0.97946140  0.65461428     0.07100
C15         C  0.57792347  0.98815115  0.63698083     0.00900
H16         H  0.58089213  0.95860026  0.63983770     0.08600
H17         H  0.57732978  0.99767218  0.64533721     0.07700
N18         N  0.56956278  0.95011047  0.51782929    -0.36200
N19         N  0.56330666  0.95284902  0.49389257    -0.28400
C20         C  0.56591278  0.94758036  0.46709293    -0.03600
C21         C  0.57419908  0.94119207  0.47451168     0.05000
C22         C  0.57622605  0.94306886  0.50699910     0.03100
H23         H  0.56220172  0.94852488  0.44388977     0.08200
H24         H  0.58256986  0.94006699  0.52180286     0.07000
N25         N  0.45361706  0.01614720  0.49404918    -0.27300
N26         N  0.44811810  0.00764543  0.46804230    -0.35200
C27         C  0.45509183  0.00023174  0.46309182     0.01000
C28         C  0.46564539  0.00422552  0.48699737     0.07000
C29         C  0.46438156  0.01436357  0.50629385    -0.06100
H30         H  0.45314564  0.99309267  0.44256792     0.07700
H31         H  0.47096722  0.02021954  0.52735127     0.08900
Cu32       Cu  0.43328232  0.00822279  0.43711674     0.44200
Cu33       Cu  0.44644820  0.03032290  0.50969067     0.42000
Cu34       Cu  0.42816909  0.03899433  0.44653451     0.43900
N35         N  0.42449006  0.01476446  0.40184746    -0.34700
N36         N  0.42378807  0.02704537  0.40412362    -0.29000
C37         C  0.42027405  0.02992738  0.37555101    -0.05100
C38         C  0.41845162  0.01870098  0.35457684     0.07100
C39         C  0.42118144  0.00929383  0.37210722     0.00900
H40         H  0.41951604  0.03965777  0.37026813     0.08600
H41         H  0.42190563  0.99991211  0.36333893     0.07700
N42         N  0.42984295  0.04576042  0.49344252    -0.36200
N43         N  0.43614784  0.04256039  0.51651605    -0.28400
C44         C  0.43371671  0.04741120  0.54406083    -0.03600
C45         C  0.42542290  0.05392769  0.53809712     0.05000
C46         C  0.42329031  0.05265877  0.50561405     0.03100
H47         H  0.43733511  0.04583891  0.56680317     0.08200
H48         H  0.41684680  0.05584145  0.49166346     0.07000
N49         N  0.60263709  0.01529956  0.88325626    -0.27300
N50         N  0.58770595  0.00606123  0.88107168    -0.35200
C51         C  0.58379570  0.99965633  0.85203779     0.01000
C52         C  0.59685541  0.00522838  0.83483115     0.07000
C53         C  0.60860049  0.01519389  0.85531658    -0.06100
H54         H  0.57224485  0.99213641  0.84354542     0.07700
H55         H  0.62057551  0.02198759  0.85018526     0.08900
Cu56       Cu  0.57310952  0.00420488  0.91578176     0.44200
Cu57       Cu  0.61401831  0.02773137  0.92435012     0.42000
Cu58       Cu  0.58998696  0.02715807  0.98645312     0.43900
N59         N  0.56092250  0.00743796  0.94934464    -0.34700
N60         N  0.56701412  0.01605218  0.97503576    -0.29000
C61         C  0.55619859  0.01655919  0.99055256    -0.05100
C62         C  0.54262737  0.00788622  0.97369586     0.07100
C63         C  0.54615563  0.00227449  0.94774730     0.00900
H64         H  0.55820742  0.02309111  0.01208860     0.08600
H65         H  0.53864492  0.99510344  0.92871498     0.07700
N66         N  0.61321298  0.03694259  0.99196531    -0.36200
N67         N  0.62204293  0.03751322  0.96928169    -0.28400
C68         C  0.63625786  0.04419033  0.98090151    -0.03600
C69         C  0.63637946  0.04782929  0.01252711     0.05000
C70         C  0.62153891  0.04306155  0.01859887     0.03100
H71         H  0.64566983  0.04565139  0.96765796     0.08200
H72         H  0.61703986  0.04378404  0.04089844     0.07000
N73         N  0.44260178  0.99119042  0.03384741    -0.27300
N74         N  0.44826568  0.99933283  0.06023146    -0.35200
C75         C  0.46291496  0.00413254  0.06312208     0.01000
C76         C  0.46679261  0.99879524  0.03727206     0.07000
C77         C  0.45355601  0.99062856  0.01920927    -0.06100
H78         H  0.47012646  0.01095478  0.08280647     0.07700
H79         H  0.45186486  0.98450677  0.99723801     0.08900
Cu80       Cu  0.43570219  0.00262652  0.09263205     0.44200
Cu81       Cu  0.42011386  0.98095292  0.01933875     0.42000
Cu82       Cu  0.39542338  0.98047453  0.07906108     0.43900
N83         N  0.42035354  0.00027512  0.12589044    -0.34700
N84         N  0.40550318  0.99131986  0.12173618    -0.29000
C85         C  0.39872249  0.99046859  0.14911452    -0.05100
C86         C  0.40988250  0.99954642  0.17133791     0.07100
C87         C  0.42343890  0.00560772  0.15577547     0.00900
H88         H  0.38660897  0.98354622  0.15270960     0.08600
H89         H  0.43471902  0.01257485  0.16595798     0.07700
N90         N  0.38837821  0.97215073  0.03336769    -0.36200
N91         N  0.39728294  0.97235200  0.01136711    -0.28400
C92         C  0.38921810  0.96657302  0.98431674    -0.03600
C93         C  0.37448915  0.96250747  0.98954204     0.05000
C94         C  0.37447210  0.96625550  0.02099625     0.03100
H95         H  0.39379063  0.96543009  0.96251962     0.08200
H96         H  0.36514240  0.96510395  0.03399766     0.07000
N97         N  0.39788195  0.41965956  0.61792597    -0.27300
N98         N  0.41057191  0.43295565  0.62490081    -0.35200
C99         C  0.41271329  0.43438881  0.65616343     0.01000
C100        C  0.40090705  0.42133826  0.67004932     0.07000
C101        C  0.39167508  0.41207810  0.64508793    -0.06100
H102        H  0.42243944  0.44414524  0.66791308     0.07700
H103        H  0.38118504  0.40086809  0.64659979     0.08900
Cu104      Cu  0.42533652  0.44855724  0.59259064     0.44200
Cu105      Cu  0.39031119  0.41397860  0.57109601     0.42000
Cu106      Cu  0.41674844  0.44283745  0.51143367     0.43900
N107        N  0.44068625  0.46277117  0.55939045    -0.34700
N108        N  0.43762487  0.46085648  0.52888210    -0.29000
C109        C  0.45009045  0.47148362  0.51330933    -0.05100
C110        C  0.46161591  0.48043186  0.53523062     0.07100
C111        C  0.45512262  0.47451662  0.56422539     0.00900
H112        H  0.45080439  0.47224507  0.48789834     0.08600
H113        H  0.46047003  0.47826697  0.58724861     0.07700
N114        N  0.39506861  0.42362328  0.50179207    -0.36200
N115        N  0.38572474  0.41351963  0.52283105    -0.28400
C116        C  0.37247379  0.40327177  0.50835145    -0.03600
C117        C  0.37344650  0.40699291  0.47672495     0.05000
C118        C  0.38799374  0.41992653  0.47347841     0.03100
H119        H  0.36276674  0.39388462  0.52022791     0.08200
H120        H  0.39293768  0.42655437  0.45233939     0.07000
N121        N  0.56687935  0.56857572  0.47977990    -0.27300
N122        N  0.56214202  0.56963251  0.45165284    -0.35200
C123        C  0.54736212  0.55865501  0.44817402     0.01000
C124        C  0.54233498  0.55008974  0.47553158     0.07000
C125        C  0.55510418  0.55679722  0.49514043    -0.06100
H126        H  0.54092320  0.55703992  0.42692470     0.07700
H127        H  0.55590852  0.55328976  0.51861065     0.08900
Cu128      Cu  0.57610685  0.58497429  0.41804121     0.44200
Cu129      Cu  0.58946967  0.58305972  0.49402031     0.42000
Cu130      Cu  0.61640811  0.60688329  0.43181433     0.43900
N131        N  0.59171086  0.59745815  0.38375368    -0.34700
N132        N  0.60654792  0.60516139  0.38786696    -0.29000
C133        C  0.61319569  0.61040496  0.35966232    -0.05100
C134        C  0.60191432  0.60564197  0.33677175     0.07100
C135        C  0.58847580  0.59756538  0.35321962     0.00900
H136        H  0.62527939  0.61661223  0.35597250     0.08600
H137        H  0.57705130  0.59166249  0.34380763     0.07700
N138        N  0.62250078  0.60662819  0.47864480    -0.36200
N139        N  0.61277886  0.59823533  0.50096651    -0.28400
C140        C  0.62043160  0.60088711  0.52828883    -0.03600
C141        C  0.63577319  0.61143879  0.52316439     0.05000
C142        C  0.63658486  0.61477802  0.49127591     0.03100
H143        H  0.61512949  0.59528481  0.55015973     0.08200
H144        H  0.64664488  0.62260417  0.47806003     0.07000
N145        N  0.59801133  0.60283414  0.09802604    -0.27300
N146        N  0.59008479  0.58769833  0.10127421    -0.35200
C147        C  0.58845244  0.58430134  0.13197894     0.01000
C148        C  0.59572296  0.59789636  0.14922840     0.07000
C149        C  0.60179686  0.60950196  0.12699811    -0.06100
H150        H  0.58174927  0.57271798  0.14108794     0.07700
H151        H  0.60757407  0.62176039  0.13153182     0.08900
Cu152      Cu  0.57941674  0.57183658  0.06510610     0.44200
Cu153      Cu  0.60118585  0.61298948  0.05395695     0.42000
Cu154      Cu  0.58060647  0.58556602  0.98795229     0.43900
N155        N  0.56583680  0.55753781  0.02875005    -0.34700
N156        N  0.56599721  0.56252157  0.00013266    -0.29000
C157        C  0.55469836  0.55082895  0.98294028    -0.05100
C158        C  0.54700730  0.53783563  0.00177480     0.07100
C159        C  0.55450679  0.54261887  0.03067018     0.00900
H160        H  0.55200562  0.55193407  0.95887999     0.08600
H161        H  0.55148960  0.53607110  0.05216091     0.07700
N162        N  0.59472999  0.60942618  0.98325275    -0.36200
N163        N  0.60182782  0.61928306  0.00697493    -0.28400
C164        C  0.60925835  0.63373109  0.99574598    -0.03600
C165        C  0.60683562  0.63302589  0.96336798     0.05000
C166        C  0.59758391  0.61737431  0.95639424     0.03100
H167        H  0.61595734  0.64399804  0.01023164     0.08200
H168        H  0.59288193  0.61209190  0.93357094     0.07000
N169        N  0.45130318  0.42885869  0.99018856    -0.27300
N170        N  0.45107415  0.43453081  0.96259933    -0.35200
C171        C  0.46296389  0.44914006  0.96069801     0.01000
C172        C  0.47132217  0.45309444  0.98847527     0.07000
C173        C  0.46351326  0.43987820  0.00674495    -0.06100
H174        H  0.46548428  0.45608757  0.93993761     0.07700
H175        H  0.46658519  0.43823597  0.03003965     0.08900
Cu176      Cu  0.43560670  0.42222682  0.92708849     0.44200
Cu177      Cu  0.43520273  0.40598914  0.00175108     0.42000
Cu178      Cu  0.40876468  0.38239481  0.93551745     0.43900
N179        N  0.42065885  0.40883123  0.89159598    -0.34700
N180        N  0.41070335  0.39384902  0.89389350    -0.29000
C181        C  0.40282641  0.38852296  0.86647913    -0.05100
C182        C  0.40806992  0.40088721  0.84621239     0.07100
C183        C  0.41942361  0.41352321  0.86306224     0.00900
H184        H  0.39383196  0.37663126  0.86186345     0.08600
H185        H  0.42648054  0.42529758  0.85511913     0.07700
N186        N  0.40865476  0.37429871  0.98043886    -0.36200
N187        N  0.41785148  0.38264137  0.00416238    -0.28400
C188        C  0.41410600  0.37360135  0.02962266    -0.03600
C189        C  0.40201495  0.35885376  0.02163783     0.05000
C190        C  0.39893309  0.35979659  0.99022392     0.03100
H191        H  0.41987664  0.37750714  0.05223633     0.08200
H192        H  0.39006672  0.35068342  0.97553202     0.07000
N193        N  0.79694254  0.69428043  0.13989607    -0.27300
N194        N  0.79561603  0.68760770  0.11236780    -0.35200
C195        C  0.80487148  0.68254628  0.11181634     0.01000
C196        C  0.81256124  0.68611069  0.14047849     0.07000
C197        C  0.80722251  0.69363843  0.15771256    -0.06100
H198        H  0.80577615  0.67663892  0.09176146     0.07700
H199        H  0.81038329  0.69814219  0.18155293     0.08900
Cu200      Cu  0.78123864  0.68533288  0.07633379     0.44200
Cu201      Cu  0.78381110  0.70310052  0.15088710     0.42000
Cu202      Cu  0.75746478  0.69948092  0.08712279     0.43900
N203        N  0.76703683  0.68428734  0.04120111    -0.34700
N204        N  0.75829471  0.68963687  0.04436399    -0.29000
C205        C  0.75080724  0.68739916  0.01678547    -0.05100
C206        C  0.75498966  0.68015839  0.99541706     0.07100
C207        C  0.76534747  0.67847627  0.01196123     0.00900
H208        H  0.74282099  0.69066316  0.01270557     0.08600
H209        H  0.77148334  0.67361718  0.00331609     0.07700
N210        N  0.75882871  0.70819468  0.13280862    -0.36200
N211        N  0.76813666  0.70936537  0.15543938    -0.28400
C212        C  0.76548675  0.71472101  0.18192433    -0.03600
C213        C  0.75400272  0.71712411  0.17592600     0.05000
C214        C  0.75013673  0.71290044  0.14443660     0.03100
H215        H  0.77147171  0.71663281  0.20403075     0.08200
H216        H  0.74131818  0.71280346  0.13112498     0.07000
N217        N  0.88801883  0.65392232  0.15997213    -0.27300
N218        N  0.88785666  0.65793474  0.18949366    -0.35200
C219        C  0.87802254  0.66225726  0.19205700     0.01000
C220        C  0.87154840  0.66090436  0.16265386     0.07000
C221        C  0.87823098  0.65558511  0.14287049    -0.06100
H222        H  0.87563298  0.66586455  0.21395964     0.07700
H223        H  0.87617425  0.65308141  0.11786434     0.08900
Cu224      Cu  0.90081181  0.65702645  0.22499067     0.44200
Cu225      Cu  0.90146220  0.64604790  0.14546979     0.42000
Cu226      Cu  0.92437804  0.64294367  0.20811326     0.43900
N227        N  0.91442511  0.65577956  0.25834359    -0.34700
N228        N  0.92313167  0.65055077  0.25293418    -0.29000
C229        C  0.93038031  0.65142982  0.28005412    -0.05100
C230        C  0.92604797  0.65764760  0.30349169     0.07100
C231        C  0.91587180  0.66014350  0.28864164     0.00900
H232        H  0.93831583  0.64798373  0.28240327     0.08600
H233        H  0.90971517  0.66462758  0.29906330     0.07700
N234        N  0.92382103  0.63715138  0.16066724    -0.36200
N235        N  0.91579142  0.63837737  0.13820355    -0.28400
C236        C  0.91868221  0.63419128  0.11040952    -0.03600
C237        C  0.92903211  0.63011708  0.11548004     0.05000
C238        C  0.93195709  0.63213071  0.14771434     0.03100
H239        H  0.91361288  0.63418320  0.08816567     0.08200
H240        H  0.93972431  0.63045854  0.16090625     0.07000
N241        N  0.74042709  0.65255511  0.76318234    -0.27300
N242        N  0.75280964  0.65248852  0.76726999    -0.35200
C243        C  0.75582935  0.65314883  0.79824809     0.01000
C244        C  0.74497766  0.65385917  0.81479329     0.07000
C245        C  0.73538653  0.65354097  0.79175363    -0.06100
H246        H  0.76556461  0.65361641  0.80801332     0.07700
H247        H  0.72546212  0.65389418  0.79547632     0.08900
Cu248      Cu  0.76621153  0.65315700  0.73096644     0.44200
Cu249      Cu  0.73140627  0.65114942  0.71821779     0.42000
Cu250      Cu  0.75517537  0.65417080  0.65150623     0.43900
N251        N  0.77991130  0.65709805  0.69258851    -0.34700
N252        N  0.77600592  0.65761641  0.66322023    -0.29000
C253        C  0.78755608  0.66093618  0.64416480    -0.05100
C254        C  0.79940080  0.66268426  0.66247644     0.07100
C255        C  0.79401635  0.66011071  0.69309616     0.00900
H256        H  0.78733582  0.66213462  0.61889080     0.08600
H257        H  0.79983825  0.66038262  0.71438842     0.07700
N258        N  0.73371871  0.65034944  0.64681720    -0.36200
N259        N  0.72507240  0.64908158  0.67061269    -0.28400
C260        C  0.71170174  0.64583218  0.65896048    -0.03600
C261        C  0.71191449  0.64506692  0.62625925     0.05000
C262        C  0.72611999  0.64805291  0.61956185     0.03100
H263        H  0.70245543  0.64399648  0.67337206     0.08200
H264        H  0.73048407  0.64802226  0.59658653     0.07000
N265        N  0.93823698  0.67844910  0.53901506    -0.27300
N266        N  0.92483960  0.67644117  0.53486000    -0.35200
C267        C  0.92143778  0.67483590  0.50402891     0.01000
C268        C  0.93311748  0.67574037  0.48758223     0.07000
C269        C  0.94364012  0.67797836  0.51048137    -0.06100
H270        H  0.91121641  0.67333151  0.49420998     0.07700
H271        H  0.95459734  0.67974345  0.50662207     0.08900
Cu272      Cu  0.91128852  0.67627953  0.56993851     0.44200
Cu273      Cu  0.94823640  0.68254197  0.58382695     0.42000
Cu274      Cu  0.92427557  0.68270263  0.64808953     0.43900
N275        N  0.89860961  0.67659231  0.60642420    -0.34700
N276        N  0.90344202  0.67906155  0.63594428    -0.29000
C277        C  0.89299928  0.67886211  0.65431942    -0.05100
C278        C  0.88092765  0.67614869  0.63534551     0.07100
C279        C  0.88498162  0.67473841  0.60504365     0.00900
H280        H  0.89423429  0.68066384  0.67959182     0.08600
H281        H  0.87859819  0.67256351  0.58342312     0.07700
N282        N  0.94541011  0.68600345  0.65439404    -0.36200
N283        N  0.95407617  0.68612845  0.63181166    -0.28400
C284        C  0.96710606  0.68914731  0.64494719    -0.03600
C285        C  0.96660904  0.69094865  0.67730298     0.05000
C286        C  0.95265266  0.68884120  0.68227406     0.03100
H287        H  0.97629973  0.69008271  0.63176838     0.08200
H288        H  0.94820934  0.68980193  0.70443355     0.07000
N289        N  0.68538511  0.78837449  0.32061919    -0.27300
N290        N  0.67866562  0.78584690  0.34811888    -0.35200
C291        C  0.67244392  0.79413890  0.35044414     0.01000
C292        C  0.67526082  0.80243558  0.32301059     0.07000
C293        C  0.68356059  0.79845820  0.30461510    -0.06100
H294        H  0.66602577  0.79378561  0.37053564     0.07700
H295        H  0.68780884  0.80241474  0.28115773     0.08900
Cu296      Cu  0.67760164  0.77079224  0.38112765     0.44200
Cu297      Cu  0.69583688  0.77688910  0.30671158     0.42000
Cu298      Cu  0.69430534  0.74952894  0.36529522     0.43900
N299        N  0.67751049  0.75579216  0.41290795    -0.34700
N300        N  0.68387263  0.74802781  0.40786882    -0.29000
C301        C  0.68217867  0.73977858  0.43379992    -0.05100
C302        C  0.67422141  0.74243103  0.45604322     0.07100
C303        C  0.67153357  0.75268404  0.44179951     0.00900
H304        H  0.68638627  0.73239554  0.43620780     0.08600
H305        H  0.66598556  0.75789774  0.45191203     0.07700
N306        N  0.70312198  0.75270505  0.32008375    -0.36200
N307        N  0.70368691  0.76236137  0.29899980    -0.28400
C308        C  0.70965282  0.76088160  0.27224620    -0.03600
C309        C  0.71305718  0.74983047  0.27664693     0.05000
C310        C  0.70874194  0.74496639  0.30734170     0.03100
H311        H  0.71140948  0.76742546  0.25113720     0.08200
H312        H  0.70934004  0.73618826  0.31947922     0.07000
N313        N  0.63132887  0.86923699  0.30581487    -0.27300
N314        N  0.63364517  0.86733490  0.27608149    -0.35200
C315        C  0.63914919  0.85839036  0.27442733     0.01000
C316        C  0.64050615  0.85427993  0.30464967     0.07000
C317        C  0.63534468  0.86136900  0.32403452    -0.06100
H318        H  0.64204867  0.85528396  0.25254032     0.07700
H319        H  0.63482067  0.86109432  0.34948865     0.08900
Cu320      Cu  0.63043257  0.87774121  0.23858973     0.44200
Cu321      Cu  0.62331011  0.88322059  0.31826870     0.42000
Cu322      Cu  0.62221754  0.90616882  0.25202530     0.43900
N323        N  0.62999325  0.89087509  0.20304813    -0.34700
N324        N  0.62771371  0.90204085  0.20757573    -0.29000
C325        C  0.62858377  0.90856187  0.17952888    -0.05100
C326        C  0.63130331  0.90085200  0.15646782     0.07100
C327        C  0.63212479  0.88975736  0.17230133     0.00900
H328        H  0.62676398  0.91773382  0.17602496     0.08600
H329        H  0.63408506  0.88141747  0.16217998     0.07700
N330        N  0.61529184  0.90620416  0.29803150    -0.36200
N331        N  0.61562113  0.89813208  0.32172068    -0.28400
C332        C  0.61011129  0.90099313  0.34757087    -0.03600
C333        C  0.60604954  0.91129972  0.33993059     0.05000
C334        C  0.60954572  0.91426634  0.30821149     0.03100
H335        H  0.60901061  0.89577369  0.37022306     0.08200
H336        H  0.60809801  0.92180357  0.29337136     0.07000
N337        N  0.64857553  0.72440881  0.68709391    -0.27300
N338        N  0.65223947  0.73868726  0.68342029    -0.35200
C339        C  0.65381243  0.74208125  0.65270746     0.01000
C340        C  0.65123608  0.72944302  0.63587718     0.07000
C341        C  0.64797342  0.71836478  0.65832452    -0.06100
H342        H  0.65663084  0.75300389  0.64328447     0.07700
H343        H  0.64497159  0.70672365  0.65401330     0.08900
Cu344      Cu  0.65494277  0.75319168  0.71970245     0.44200
Cu345      Cu  0.64395413  0.71455834  0.73199960     0.42000
Cu346      Cu  0.64684501  0.73994055  0.79866999     0.43900
N347        N  0.65650678  0.76683367  0.75671450    -0.34700
N348        N  0.65338509  0.76218836  0.78616028    -0.29000
C349        C  0.65467275  0.77369324  0.80391972    -0.05100
C350        C  0.65880548  0.78615289  0.78449560     0.07100
C351        C  0.65986794  0.78125866  0.75475846     0.00900
H352        H  0.65254744  0.77292109  0.82896393     0.08600
H353        H  0.66238742  0.78743370  0.73286022     0.07700
N354        N  0.64041210  0.71706029  0.80304333    -0.36200
N355        N  0.63942431  0.70809218  0.77947382    -0.28400
C356        C  0.63488980  0.69415039  0.79098531    -0.03600
C357        C  0.63288211  0.69419951  0.82336072     0.05000
C358        C  0.63652699  0.70900359  0.82998460     0.03100
H359        H  0.63319905  0.68468104  0.77657857     0.08200
H360        H  0.63628285  0.71365314  0.85270938     0.07000
N361        N  0.66940126  0.92486014  0.93348112    -0.27300
N362        N  0.66413395  0.91023595  0.93899233    -0.35200
C363        C  0.65717764  0.90623889  0.96682816     0.01000
C364        C  0.65799913  0.91888354  0.98002593     0.07000
C365        C  0.66598115  0.93060540  0.95831442    -0.06100
H366        H  0.65214614  0.89492055  0.97693368     0.07700
H367        H  0.66892456  0.94234359  0.96024721     0.08900
Cu368      Cu  0.66604664  0.89559720  0.90957410     0.44200
Cu369      Cu  0.68027649  0.93548926  0.89126331     0.42000
Cu370      Cu  0.68016465  0.90892462  0.83294055     0.43900
N371        N  0.66723568  0.88182306  0.87634159    -0.34700
N372        N  0.67226822  0.88658729  0.84762070    -0.29000
C373        C  0.67142390  0.87496116  0.83135498    -0.05100
C374        C  0.66556292  0.86221330  0.85086966     0.07100
C375        C  0.66306827  0.86711589  0.87927769     0.00900
H376        H  0.67488462  0.87584616  0.80712444     0.08600
H377        H  0.65859270  0.86058507  0.90067488     0.07700
N378        N  0.68812861  0.93195761  0.82417054    -0.36200
N379        N  0.68854296  0.94166554  0.84522238    -0.28400
C380        C  0.69451736  0.95553737  0.83165237    -0.03600
C381        C  0.69794854  0.95455367  0.80047733     0.05000
C382        C  0.69370560  0.93937719  0.79675904     0.03100
H383        H  0.69598542  0.96553306  0.84352899     0.08200
H384        H  0.69472790  0.93408235  0.77571865     0.07000
N385        N  0.06868674  0.74596573  0.92410627    -0.27300
N386        N  0.08250925  0.75823069  0.92916021    -0.35200
C387        C  0.08534339  0.76031951  0.96023621     0.01000
C388        C  0.07278094  0.74878575  0.97578209     0.07000
C389        C  0.06237976  0.73979464  0.95218554    -0.06100
H390        H  0.09581717  0.76965613  0.97078620     0.07700
H391        H  0.05095474  0.72989277  0.95521506     0.08900
Cu392      Cu  0.09741694  0.77172911  0.89444338     0.44200
Cu393      Cu  0.05944999  0.73916488  0.87880923     0.42000
Cu394      Cu  0.08669127  0.76036814  0.81475454     0.43900
N395        N  0.11208367  0.78266136  0.85770005    -0.34700
N396        N  0.10830974  0.77833258  0.82797661    -0.29000
C397        C  0.12043449  0.78729357  0.80986442    -0.05100
C398        C  0.13249132  0.79780200  0.82925892     0.07100
C399        C  0.12666156  0.79445124  0.85947934     0.00900
H400        H  0.12042902  0.78605212  0.78452852     0.08600
H401        H  0.13249937  0.79999702  0.88136149     0.07700
N402        N  0.06389457  0.74342057  0.80808751    -0.36200
N403        N  0.05404679  0.73594852  0.83082170    -0.28400
C404        C  0.04018689  0.72657203  0.81777934    -0.03600
C405        C  0.04132032  0.72818332  0.78524258     0.05000
C406        C  0.05657716  0.73897210  0.78013536     0.03100
H407        H  0.03003577  0.71930787  0.83121861     0.08200
H408        H  0.06200841  0.74372687  0.75784262     0.07000
N409        N  0.28314444  0.91574409  0.71242496    -0.27300
N410        N  0.26933887  0.90345397  0.70753836    -0.35200
C411        C  0.26634131  0.90133792  0.67656475     0.01000
C412        C  0.27881971  0.91285604  0.66084540     0.07000
C413        C  0.28930512  0.92193829  0.68426552    -0.06100
H414        H  0.25585642  0.89193073  0.66623127     0.07700
H415        H  0.30072956  0.93181139  0.68104483     0.08900
Cu416      Cu  0.25491733  0.88963845  0.74226269     0.44200
Cu417      Cu  0.29268654  0.92185015  0.75755060     0.42000
Cu418      Cu  0.26759301  0.89711141  0.82202004     0.43900
N419        N  0.24082787  0.87799523  0.77915034    -0.34700
N420        N  0.24529629  0.88066028  0.80893685    -0.29000
C421        C  0.23324958  0.87157252  0.82717205    -0.05100
C422        C  0.22055300  0.86277495  0.80776501     0.07100
C423        C  0.22591985  0.86724866  0.77743668     0.00900
H424        H  0.23376198  0.87153976  0.85263815     0.08600
H425        H  0.21954744  0.86325551  0.75551379     0.07700
N426        N  0.29040552  0.91454942  0.82747295    -0.36200
N427        N  0.29936455  0.92335216  0.80450895    -0.28400
C428        C  0.31348831  0.93284343  0.81623371    -0.03600
C429        C  0.31346413  0.92996272  0.84810520     0.05000
C430        C  0.29859770  0.91831733  0.85435102     0.03100
H431        H  0.32309026  0.94113010  0.80238686     0.08200
H432        H  0.29411101  0.91260137  0.87658082     0.07000
N433        N  0.27555072  0.93241578  0.42838786    -0.27300
N434        N  0.26893940  0.91733212  0.42936351    -0.35200
C435        C  0.27070323  0.91341750  0.45828866     0.01000
C436        C  0.27883759  0.92667393  0.47685906     0.07000
C437        C  0.28172460  0.93854396  0.45690869    -0.06100
H438        H  0.26580179  0.90160933  0.46525461     0.07700
H439        H  0.28751958  0.95068240  0.46274778     0.08900
Cu440      Cu  0.25591458  0.90225336  0.39323660     0.44200
Cu441      Cu  0.27508916  0.94331497  0.38812714     0.42000
Cu442      Cu  0.25129670  0.91775196  0.32233659     0.43900
N443        N  0.23915334  0.88889570  0.36019172    -0.34700
N444        N  0.23702424  0.89447355  0.33426892    -0.29000
C445        C  0.22395232  0.88329202  0.32031791    -0.05100
C446        C  0.21752441  0.87003569  0.33846864     0.07100
C447        C  0.22762732  0.87413372  0.36347081     0.00900
H448        H  0.21923649  0.88491609  0.29917977     0.08600
H449        H  0.22630513  0.86725343  0.38373853     0.07700
N450        N  0.26567138  0.94182211  0.31980624    -0.36200
N451        N  0.27384665  0.95088033  0.34384527    -0.28400
C452        C  0.28127020  0.96566971  0.33486983    -0.03600
C453        C  0.27769716  0.96612003  0.30356927     0.05000
C454        C  0.26779445  0.95072135  0.29481628     0.03100
H455        H  0.28881056  0.97534860  0.35016409     0.08200
H456        H  0.26226262  0.94625657  0.27213791     0.07000
N457        N  0.07382590  0.73139207  0.21081466    -0.27300
N458        N  0.08251576  0.74646966  0.20687160    -0.35200
C459        C  0.08136065  0.74970761  0.17691796     0.01000
C460        C  0.07144322  0.73608322  0.16066028     0.07000
C461        C  0.06689423  0.72462986  0.18302990    -0.06100
H462        H  0.08791451  0.76122901  0.16754668     0.07700
H463        H  0.05933007  0.71231605  0.17933346     0.08900
Cu464      Cu  0.09715511  0.76261897  0.24022748     0.44200
Cu465      Cu  0.07270304  0.72131066  0.25405675     0.42000
Cu466      Cu  0.10064353  0.74900698  0.31326308     0.43900
N467        N  0.11366824  0.77700008  0.27310824    -0.34700
N468        N  0.11529144  0.77187122  0.30020551    -0.29000
C469        C  0.12774039  0.78338221  0.31526062    -0.05100
C470        C  0.13431634  0.79647027  0.29667174     0.07100
C471        C  0.12496303  0.79190621  0.27014491     0.00900
H472        H  0.13184088  0.78216496  0.33774486     0.08600
H473        H  0.12662591  0.79865868  0.24941757     0.07700
N474        N  0.08440470  0.72584729  0.32154275    -0.36200
N475        N  0.07438729  0.71585472  0.30060916    -0.28400
C476        C  0.06555273  0.70210492  0.31461646    -0.03600
C477        C  0.07017831  0.70345152  0.34593527     0.05000
C478        C  0.08219201  0.71872966  0.34922944     0.03100
H479        H  0.05637000  0.69193872  0.30274283     0.08200
H480        H  0.08886394  0.72445327  0.37025428     0.07000
N481        N  0.97238711  0.39500460  0.35530087    -0.27300
N482        N  0.96979259  0.40585268  0.34948604    -0.35200
C483        C  0.97058552  0.40831350  0.31838213     0.01000
C484        C  0.97397177  0.39866558  0.30372789     0.07000
C485        C  0.97513020  0.39040504  0.32782716    -0.06100
H486        H  0.96944986  0.41700932  0.30740370     0.07700
H487        H  0.97777566  0.38175108  0.32559536     0.08900
Cu488      Cu  0.96738083  0.41860538  0.38352641     0.44200
Cu489      Cu  0.97193490  0.38730649  0.40062904     0.42000
Cu490      Cu  0.97175520  0.41191658  0.46347546     0.43900
N491        N  0.97051864  0.43363107  0.41942394    -0.34700
N492        N  0.97273806  0.43158296  0.44912622    -0.29000
C493        C  0.97621292  0.44417727  0.46606262    -0.05100
C494        C  0.97617170  0.45466543  0.44590956     0.07100
C495        C  0.97245138  0.44747640  0.41654934     0.00900
H496        H  0.97887976  0.44568458  0.49102474     0.08600
H497        H  0.97198823  0.45225754  0.39432531     0.07700
N498        N  0.96902854  0.39071430  0.47076936    -0.36200
N499        N  0.96900267  0.38182466  0.44822662    -0.28400
C500        C  0.96549895  0.36840559  0.46083870    -0.03600
C501        C  0.96316002  0.36878381  0.49291176     0.05000
C502        C  0.96560993  0.38318891  0.49826136     0.03100
H503        H  0.96424548  0.35889831  0.44729353     0.08200
H504        H  0.96418085  0.38761020  0.52018124     0.07000
N505        N  0.02217445  0.60573244  0.59763980    -0.27300
N506        N  0.02198856  0.59305739  0.60218108    -0.35200
C507        C  0.02226980  0.59083295  0.63318497     0.01000
C508        C  0.02250417  0.60256604  0.64932905     0.07000
C509        C  0.02235029  0.61183689  0.62604575    -0.06100
H510        H  0.02197940  0.58113041  0.64326855     0.07700
H511        H  0.02262188  0.62231582  0.62947972     0.08900
Cu512      Cu  0.02002540  0.57834378  0.56668647     0.44200
Cu513      Cu  0.02261732  0.61347973  0.55211448     0.42000
Cu514      Cu  0.01435783  0.58489189  0.48756082     0.43900
N515        N  0.01423631  0.56229637  0.53111093    -0.34700
N516        N  0.01161049  0.56429044  0.50166318    -0.29000
C517        C  0.00725317  0.55136823  0.48489240    -0.05100
C518        C  0.00718331  0.54075640  0.50491397     0.07100
C519        C  0.01168498  0.54819325  0.53400324     0.00900
H520        H  0.00438322  0.54984991  0.46002030     0.08600
H521        H  0.01263998  0.54358638  0.55603056     0.07700
N522        N  0.02039510  0.60750608  0.48101857    -0.36200
N523        N  0.02383486  0.61778253  0.50379608    -0.28400
C524        C  0.02883332  0.63153804  0.49068117    -0.03600
C525        C  0.02838518  0.62985901  0.45817551     0.05000
C526        C  0.02289777  0.61445379  0.45297247     0.03100
H527        H  0.03274499  0.64205477  0.50392148     0.08200
H528        H  0.02156814  0.60885409  0.43044157     0.07000
N529        N  0.99916267  0.56084652  0.97674744    -0.27300
N530        N  0.00536816  0.56201562  0.94914602    -0.35200
C531        C  0.00972082  0.55204593  0.94768883     0.01000
C532        C  0.00610621  0.54408255  0.97586200     0.07000
C533        C  0.99943746  0.55008229  0.99374265    -0.06100
H534        H  0.01498475  0.55065404  0.92734033     0.07700
H535        H  0.99478870  0.54667565  0.01710908     0.08900
Cu536      Cu  0.00670188  0.57659530  0.91433254     0.44200
Cu537      Cu  0.98996948  0.57365282  0.98791926     0.42000
Cu538      Cu  0.98945825  0.59826183  0.92507591     0.43900
N539        N  0.00579035  0.59010504  0.87984133    -0.34700
N540        N  0.99937583  0.59794208  0.88298944    -0.29000
C541        C  0.00006124  0.60453027  0.85515438    -0.05100
C542        C  0.00732123  0.60065242  0.83350909     0.07100
C543        C  0.01072762  0.59148677  0.85025878     0.00900
H544        H  0.99541100  0.61140513  0.85093296     0.08600
H545        H  0.01589286  0.58564843  0.84143477     0.07700
N546        N  0.98053246  0.59571714  0.97002933    -0.36200
N547        N  0.98086741  0.58703651  0.99231921    -0.28400
C548        C  0.97456078  0.58839299  0.01848000    -0.03600
C549        C  0.97002011  0.59841862  0.01265985     0.05000
C550        C  0.97394503  0.60275966  0.98155477     0.03100
H551        H  0.97343613  0.58247678  0.04019367     0.08200
H552        H  0.97249883  0.61076191  0.96840873     0.07000
N553        N  0.02872628  0.46024222  0.99660752    -0.27300
N554        N  0.02051246  0.45788127  0.02188709    -0.35200
C555        C  0.01638470  0.46802205  0.02260084     0.01000
C556        C  0.02220867  0.47736060  0.99641764     0.07000
C557        C  0.02999130  0.47204023  0.98043053    -0.06100
H558        H  0.00944935  0.46835949  0.04080165     0.07700
H559        H  0.03616696  0.47642875  0.95871009     0.08900
Cu560      Cu  0.01531590  0.44116405  0.05482224     0.44200
Cu561      Cu  0.03744317  0.44679631  0.98606243     0.42000
Cu562      Cu  0.03249357  0.41979189  0.04854150     0.43900
N563        N  0.01292290  0.42563656  0.08821773    -0.34700
N564        N  0.01966389  0.41807307  0.08685766    -0.29000
C565        C  0.01652169  0.40969762  0.11320524    -0.05100
C566        C  0.00721788  0.41205904  0.13183714     0.07100
C567        C  0.00523123  0.42224970  0.11516586     0.00900
H568        H  0.02070614  0.40247921  0.11835290     0.08600
H569        H  0.99910514  0.42732761  0.12252660     0.07700
N570        N  0.04238878  0.42171039  0.00537942    -0.36200
N571        N  0.04395547  0.43103650  0.98241895    -0.28400
C572        C  0.04986845  0.42822897  0.95721857    -0.03600
C573        C  0.05218743  0.41666252  0.96480684     0.05000
C574        C  0.04730407  0.41289154  0.99556344     0.03100
H575        H  0.05224285  0.43414298  0.93499894     0.08200
H576        H  0.04684557  0.40399747  0.00961825     0.07000
N577        N  0.21330866  0.31680760  0.84558977    -0.27300
N578        N  0.21451256  0.32394536  0.87240781    -0.35200
C579        C  0.20468766  0.32832069  0.87228289     0.01000
C580        C  0.19667410  0.32371572  0.84394554     0.07000
C581        C  0.20254255  0.31645204  0.82754127    -0.06100
H582        H  0.20334036  0.33413764  0.89192262     0.07700
H583        H  0.19912620  0.31108650  0.80442164     0.08900
Cu584      Cu  0.22868971  0.32660470  0.90909264     0.44200
Cu585      Cu  0.22636804  0.30759666  0.83688568     0.42000
Cu586      Cu  0.25138088  0.31113969  0.90405666     0.43900
N587        N  0.24218518  0.32773933  0.94576955    -0.34700
N588        N  0.25067856  0.32204495  0.94474332    -0.29000
C589        C  0.25773984  0.32457552  0.97297643    -0.05100
C590        C  0.25346892  0.33234601  0.99252730     0.07100
C591        C  0.24353252  0.33400522  0.97427907     0.00900
H592        H  0.26538727  0.32105558  0.97874543     0.08600
H593        H  0.23738077  0.33910395  0.98122586     0.07700
N594        N  0.24965290  0.30097613  0.86034221    -0.36200
N595        N  0.24094187  0.29974501  0.83632847    -0.28400
C596        C  0.24319542  0.29284166  0.81195531    -0.03600
C597        C  0.25377744  0.28952334  0.82099440     0.05000
C598        C  0.25754064  0.29486691  0.85186710     0.03100
H599        H  0.23749764  0.29041617  0.78930663     0.08200
H600        H  0.26569055  0.29466556  0.86706380     0.07000
N601        N  0.11792795  0.35112869  0.81098884    -0.27300
N602        N  0.11609618  0.34313460  0.78506195    -0.35200
C603        C  0.12511700  0.33778074  0.78649424     0.01000
C604        C  0.13320688  0.34259410  0.81476735     0.07000
C605        C  0.12829208  0.35108171  0.82969470    -0.06100
H606        H  0.12574863  0.33099008  0.76791212     0.07700
H607        H  0.13199143  0.35688407  0.85237865     0.08900
Cu608      Cu  0.10176540  0.34008772  0.74811621     0.44200
Cu609      Cu  0.10572516  0.36132539  0.81863049     0.42000
Cu610      Cu  0.07926728  0.35605614  0.75419091     0.43900
N611        N  0.08791184  0.33890995  0.71191346    -0.34700
N612        N  0.07961042  0.34481663  0.71371956    -0.29000
C613        C  0.07267250  0.34286464  0.68563358    -0.05100
C614        C  0.07682728  0.33533405  0.66512089     0.07100
C615        C  0.08650215  0.33304071  0.68283278     0.00900
H616        H  0.06537505  0.34688365  0.68046299     0.08600
H617        H  0.09259819  0.32801220  0.67496202     0.07700
N618        N  0.08169146  0.36714609  0.79703221    -0.36200
N619        N  0.09103506  0.36895514  0.82019738    -0.28400
C620        C  0.08931952  0.37626221  0.84450816    -0.03600
C621        C  0.07847661  0.37930144  0.83628323     0.05000
C622        C  0.07394480  0.37336683  0.80595417     0.03100
H623        H  0.09562331  0.37924514  0.86651641     0.08200
H624        H  0.06542508  0.37330623  0.79152786     0.07000
N625        N  0.27031186  0.34549081  0.23024618    -0.27300
N626        N  0.25775583  0.34496227  0.22398943    -0.35200
C627        C  0.25515511  0.34343257  0.19277726     0.01000
C628        C  0.26649415  0.34278682  0.17838507     0.07000
C629        C  0.27591384  0.34403133  0.20287638    -0.06100
H630        H  0.24548304  0.34251727  0.18143424     0.07700
H631        H  0.28619470  0.34417296  0.20089693     0.08900
Cu632      Cu  0.24378735  0.34520518  0.25751824     0.44200
Cu633      Cu  0.27908788  0.34895169  0.27608125     0.42000
Cu634      Cu  0.25409057  0.34836678  0.33807338     0.43900
N635        N  0.22959864  0.34302094  0.29333194    -0.34700
N636        N  0.23323469  0.34406120  0.32347546    -0.29000
C637        C  0.22155159  0.34181662  0.34079053    -0.05100
C638        C  0.20991785  0.33917017  0.32044172     0.07100
C639        C  0.21555552  0.34003598  0.29051093     0.00900
H640        H  0.22159017  0.34207314  0.36628393     0.08600
H641        H  0.20992551  0.33851394  0.26811376     0.07700
N642        N  0.27603086  0.35384937  0.34566541    -0.36200
N643        N  0.28511271  0.35429023  0.32371682    -0.28400
C644        C  0.29880415  0.35958747  0.33693408    -0.03600
C645        C  0.29832684  0.36258682  0.36871015     0.05000
C646        C  0.28365743  0.35871766  0.37326188     0.03100
H647        H  0.30846895  0.36140376  0.32412340     0.08200
H648        H  0.27899046  0.36000542  0.39475492     0.07000
N649        N  0.06602502  0.31242622  0.43063217    -0.27300
N650        N  0.07831177  0.31221746  0.43488064    -0.35200
C651        C  0.08123854  0.31263883  0.46578145     0.01000
C652        C  0.07040205  0.31329844  0.48234098     0.07000
C653        C  0.06091762  0.31325409  0.45928570    -0.06100
H654        H  0.09087916  0.31289106  0.47546828     0.07700
H655        H  0.05097776  0.31356810  0.46308179     0.08900
Cu656      Cu  0.09167925  0.31278335  0.39923534     0.44200
Cu657      Cu  0.05730586  0.31090509  0.38497311     0.42000
Cu658      Cu  0.08241906  0.31429368  0.31942182     0.43900
N659        N  0.10617739  0.31684872  0.36294866    -0.34700
N660        N  0.10314230  0.31775134  0.33313435    -0.29000
C661        C  0.11515175  0.32093431  0.31571167    -0.05100
C662        C  0.12629244  0.32211438  0.33572663     0.07100
C663        C  0.12005389  0.31942883  0.36549443     0.00900
H664        H  0.11568660  0.32230579  0.29041394     0.08600
H665        H  0.12510760  0.31931389  0.38764379     0.07700
N666        N  0.06029074  0.30886106  0.31362025    -0.36200
N667        N  0.05125190  0.30748453  0.33672227    -0.28400
C668        C  0.03763484  0.30304449  0.32413351    -0.03600
C669        C  0.03806660  0.30160104  0.29157753     0.05000
C670        C  0.05267495  0.30543110  0.28597852     0.03100
H671        H  0.02809261  0.30096213  0.33780963     0.08200
H672        H  0.05738178  0.30534240  0.26348250     0.07000
N673        N  0.35320394  0.12362875  0.67018523    -0.27300
N674        N  0.34931756  0.12400514  0.69948750    -0.35200
C675        C  0.34336218  0.13252539  0.70132102     0.01000
C676        C  0.34336954  0.13797669  0.67160334     0.07000
C677        C  0.34974072  0.13204590  0.65234160    -0.06100
H678        H  0.33946464  0.13461397  0.72305037     0.07700
H679        H  0.35185529  0.13381676  0.62734294     0.08900
Cu680      Cu  0.35260153  0.11339867  0.73627307     0.44200
Cu681      Cu  0.36330372  0.11155531  0.65852643     0.42000
Cu682      Cu  0.36876651  0.09140285  0.72564904     0.43900
N683        N  0.35680617  0.10342218  0.77291286    -0.34700
N684        N  0.36250028  0.09492100  0.76974890    -0.29000
C685        C  0.36400709  0.09049161  0.79864233    -0.05100
C686        C  0.35920123  0.09678723  0.82078482     0.07100
C687        C  0.35469575  0.10483937  0.80349207     0.00900
H688        H  0.36872238  0.08370292  0.80324828     0.08600
H689        H  0.35025042  0.11135713  0.81244022     0.07700
N690        N  0.37512930  0.09161790  0.67908315    -0.36200
N691        N  0.37326306  0.09874094  0.65546135    -0.28400
C692        C  0.37887385  0.09646971  0.62913434    -0.03600
C693        C  0.38456725  0.08750834  0.63626333     0.05000
C694        C  0.38196707  0.08470914  0.66826876     0.03100
H695        H  0.37886706  0.10116437  0.60645924     0.08200
H696        H  0.38472446  0.07803976  0.68278690     0.07000
N697        N  0.31092359  0.21453418  0.65975305    -0.27300
N698        N  0.31670087  0.21562336  0.63161994    -0.35200
C699        C  0.32074252  0.20546954  0.62898642     0.01000
C700        C  0.31740704  0.19736614  0.65680322     0.07000
C701        C  0.31120448  0.20351173  0.67588800    -0.06100
H702        H  0.32579829  0.20420881  0.60810748     0.07700
H703        H  0.30708185  0.20016305  0.69963232     0.08900
Cu704      Cu  0.31826867  0.23008058  0.59663749     0.44200
Cu705      Cu  0.30271842  0.22822123  0.67314719     0.42000
Cu706      Cu  0.30177240  0.25139055  0.60706960     0.43900
N707        N  0.31654600  0.24227766  0.56066074    -0.34700
N708        N  0.31026039  0.25021958  0.56377381    -0.29000
C709        C  0.30997122  0.25586698  0.53536876    -0.05100
C710        C  0.31625997  0.25101654  0.51340330     0.07100
C711        C  0.32034198  0.24250943  0.53051069     0.00900
H712        H  0.30499318  0.26242178  0.53081942     0.08600
H713        H  0.32542099  0.23658492  0.52164940     0.07700
N714        N  0.29455941  0.25096834  0.65285495    -0.36200
N715        N  0.29498976  0.24306870  0.67678233    -0.28400
C716        C  0.28946269  0.24603362  0.70252109    -0.03600
C717        C  0.28525548  0.25615269  0.69430825     0.05000
C718        C  0.28873006  0.25896951  0.66264227     0.03100
H719        H  0.28833672  0.24096523  0.72537422     0.08200
H720        H  0.28727394  0.26643596  0.64758738     0.07000
N721        N  0.32894572  0.10197493  0.14461936    -0.27300
N722        N  0.33831033  0.10865339  0.12090500    -0.35200
C723        C  0.34238035  0.12332730  0.11877270     0.01000
C724        C  0.33525354  0.12624696  0.14233681     0.07000
C725        C  0.32677177  0.11236978  0.15834614    -0.06100
H726        H  0.34952289  0.13105114  0.10043501     0.07700
H727        H  0.31946432  0.10994416  0.17824279     0.08900
Cu728      Cu  0.34355633  0.09715189  0.08959157     0.44200
Cu729      Cu  0.31964822  0.07876307  0.15467453     0.42000
Cu730      Cu  0.32352065  0.05642869  0.08987805     0.43900
N731        N  0.34360613  0.08449554  0.05227341    -0.34700
N732        N  0.33570033  0.06930058  0.05101919    -0.29000
C733        C  0.33681833  0.06482365  0.02177933    -0.05100
C734        C  0.34582822  0.07795608  0.00388036     0.07100
C735        C  0.34994517  0.09015099  0.02429909     0.00900
H736        H  0.33098877  0.05294523  0.01383297     0.08600
H737        H  0.35661616  0.10231865  0.01918224     0.07700
N738        N  0.31451499  0.04797731  0.13420278    -0.36200
N739        N  0.31332265  0.05583633  0.15744926    -0.28400
C740        C  0.30760374  0.04668821  0.18282971    -0.03600
C741        C  0.30495788  0.03238603  0.17516897     0.05000
C742        C  0.30950637  0.03369939  0.14416822     0.03100
H743        H  0.30540416  0.05017980  0.20513887     0.08200
H744        H  0.30946580  0.02499589  0.12991803     0.07000
N745        N  0.33351834  0.25675580  0.27852107    -0.27300
N746        N  0.32517402  0.24153855  0.27742511    -0.35200
C747        C  0.31966540  0.23607072  0.30602531     0.01000
C748        C  0.32477305  0.24836319  0.32670430     0.07000
C749        C  0.33345838  0.26140353  0.30836113    -0.06100
H750        H  0.31298318  0.22392854  0.31152249     0.07700
H751        H  0.33994656  0.27327821  0.31645864     0.08900
Cu752      Cu  0.32367140  0.22834007  0.23955721     0.44200
Cu753      Cu  0.34530713  0.26942259  0.23881480     0.42000
Cu754      Cu  0.34605704  0.24589536  0.17241616     0.43900
N755        N  0.32730712  0.21614639  0.20671002    -0.34700
N756        N  0.33609044  0.22252873  0.18205609    -0.29000
C757        C  0.33751236  0.21181825  0.16741247    -0.05100
C758        C  0.32914734  0.19804572  0.18379754     0.07100
C759        C  0.32286012  0.20133872  0.20853238     0.00900
H760        H  0.34433159  0.21398744  0.14676127     0.08600
H761        H  0.31615561  0.19378976  0.22751326     0.07700
N762        N  0.35437157  0.26940301  0.17052261    -0.36200
N763        N  0.35442319  0.27781040  0.19425183    -0.28400
C764        C  0.36079530  0.29243220  0.18458957    -0.03600
C765        C  0.36486539  0.29334080  0.15325176     0.05000
C766        C  0.36057926  0.27847779  0.14521431     0.03100
H767        H  0.36211788  0.30166846  0.19927369     0.08200
H768        H  0.36203242  0.27452826  0.12268653     0.07000
N769        N  0.72886687  0.07066922  0.27948287    -0.27300
N770        N  0.74380329  0.07894528  0.28193434    -0.35200
C771        C  0.74794930  0.07611339  0.30954704     0.01000
C772        C  0.73506106  0.06548490  0.32580597     0.07000
C773        C  0.72309852  0.06230808  0.30593829    -0.06100
H774        H  0.75959728  0.08205671  0.31759794     0.07700
H775        H  0.71111595  0.05476369  0.31057219     0.08900
Cu776      Cu  0.75854057  0.09503340  0.25003667     0.44200
Cu777      Cu  0.71765881  0.07199801  0.24012098     0.42000
Cu778      Cu  0.74313036  0.10151955  0.18250452     0.43900
N779        N  0.77191522  0.11206072  0.21830811    -0.34700
N780        N  0.76630131  0.11482536  0.19331682    -0.29000
C781        C  0.77775405  0.12691711  0.17794757    -0.05100
C782        C  0.79126696  0.13196747  0.19408380     0.07100
C783        C  0.78700628  0.12219082  0.21959629     0.00900
H784        H  0.77629973  0.13163601  0.15661645     0.08600
H785        H  0.79423241  0.12257512  0.23826820     0.07700
N786        N  0.71977751  0.08595418  0.17597847    -0.36200
N787        N  0.71061935  0.07548709  0.19662930    -0.28400
C788        C  0.69646098  0.06729643  0.18434068    -0.03600
C789        C  0.69662857  0.07275723  0.15439853     0.05000
C790        C  0.71166607  0.08461144  0.15008018     0.03100
H791        H  0.68683199  0.05781797  0.19619354     0.08200
H792        H  0.71646539  0.09179407  0.12957377     0.07000
N793        N  0.92956521  0.26855801  0.05911024    -0.27300
N794        N  0.91480737  0.26253715  0.05939608    -0.35200
C795        C  0.90996067  0.26244467  0.03005809     0.01000
C796        C  0.92213157  0.26855920  0.00990134     0.07000
C797        C  0.93446917  0.27251380  0.02921260    -0.06100
H798        H  0.89816930  0.25715938  0.02355924     0.07700
H799        H  0.94585451  0.27668436  0.02169342     0.08900
Cu800      Cu  0.90056007  0.25054245  0.09635181     0.44200
Cu801      Cu  0.94148445  0.26849148  0.09876754     0.42000
Cu802      Cu  0.91628545  0.24018841  0.15712065     0.43900
N803        N  0.88727249  0.23255052  0.12652962    -0.34700
N804        N  0.89307042  0.22818312  0.14833663    -0.29000
C805        C  0.88180369  0.21501771  0.16121271    -0.05100
C806        C  0.86817725  0.21080126  0.14662670     0.07100
C807        C  0.87220296  0.22233247  0.12482037     0.00900
H808        H  0.88354894  0.20881746  0.17924577     0.08600
H809        H  0.86491127  0.22294931  0.10776555     0.07700
N810        N  0.93963645  0.25509731  0.16310238    -0.36200
N811        N  0.94891767  0.26539221  0.14234502    -0.28400
C812        C  0.96306932  0.27348346  0.15488776    -0.03600
C813        C  0.96264195  0.26811861  0.18509884     0.05000
C814        C  0.94756209  0.25642355  0.18922901     0.03100
H815        H  0.97284382  0.28291104  0.14325603     0.08200
H816        H  0.94258285  0.24942027  0.20990914     0.07000
N817        N  0.89089993  0.23877371  0.67318587    -0.27300
N818        N  0.88989270  0.23427953  0.70259128    -0.35200
C819        C  0.87991929  0.21898322  0.70404679     0.01000
C820        C  0.87422288  0.21340505  0.67397580     0.07000
C821        C  0.88152350  0.22635474  0.65496236    -0.06100
H822        H  0.87706248  0.21252360  0.72562182     0.07700
H823        H  0.87995453  0.22683991  0.62987979     0.08900
Cu824      Cu  0.90176749  0.24907777  0.73961496     0.44200
Cu825      Cu  0.90475706  0.26180338  0.66066770     0.42000
Cu826      Cu  0.92598566  0.28952308  0.72679373     0.43900
N827        N  0.91424194  0.26472768  0.77505035    -0.34700
N828        N  0.92334999  0.27975675  0.77117533    -0.29000
C829        C  0.92961160  0.28642308  0.79943857    -0.05100
C830        C  0.92399619  0.27492312  0.82200011     0.07100
C831        C  0.91434809  0.26137276  0.80542562     0.00900
H832        H  0.93735307  0.29869760  0.80337775     0.08600
H833        H  0.90781590  0.24981013  0.81464053     0.07700
N834        N  0.92662852  0.29546714  0.67952620    -0.36200
N835        N  0.91918936  0.28557756  0.65601233    -0.28400
C836        C  0.92247321  0.29339843  0.62890362    -0.03600
C837        C  0.93245432  0.30900243  0.63544086     0.05000
C838        C  0.93477985  0.30981486  0.66785324     0.03100
H839        H  0.91778378  0.28802937  0.60613886     0.08200
H840        H  0.94204066  0.32005769  0.68204757     0.07000
N841        N  0.75230141  0.05994727  0.55758189    -0.27300
N842        N  0.76452351  0.07375550  0.55223196    -0.35200
C843        C  0.76574594  0.07640616  0.52119535     0.01000
C844        C  0.75367577  0.06373201  0.50598581     0.07000
C845        C  0.74524626  0.05350020  0.52975155    -0.06100
H846        H  0.77487334  0.08680233  0.51045191     0.07700
H847        H  0.73518356  0.04201053  0.52691672     0.08900
Cu848      Cu  0.77930958  0.08876288  0.58647347     0.44200
Cu849      Cu  0.74721615  0.05045524  0.60256263     0.42000
Cu850      Cu  0.77206012  0.07704624  0.66637742     0.43900
N851        N  0.79168003  0.10344244  0.62341714    -0.34700
N852        N  0.78894247  0.09939702  0.65324962    -0.29000
C853        C  0.79856310  0.11173550  0.67147409    -0.05100
C854        C  0.80782252  0.12417966  0.65204729     0.07100
C855        C  0.80303329  0.11834846  0.62168818     0.00900
H856        H  0.79870003  0.11158759  0.69695488     0.08600
H857        H  0.80725366  0.12442203  0.59974291     0.07700
N858        N  0.75541340  0.05366121  0.67220554    -0.36200
N859        N  0.74659886  0.04402698  0.64940334    -0.28400
C860        C  0.73753003  0.02982986  0.66154952    -0.03600
C861        C  0.74064890  0.03052120  0.69362531     0.05000
C862        C  0.75209059  0.04585917  0.69933926     0.03100
H863        H  0.72912484  0.01980251  0.64802354     0.08200
H864        H  0.75776348  0.05103776  0.72158896     0.07000
C865        C  0.86248350  0.19723000  0.66467768    -0.05300
C866        C  0.85932737  0.19285528  0.63268188    -0.05200
C867        C  0.84810113  0.17770932  0.62390584    -0.23400
C868        C  0.83978929  0.16662216  0.64693395     0.18800
C869        C  0.84288623  0.17082620  0.67913407     0.16000
C870        C  0.85419149  0.18604498  0.68778791    -0.18400
C871        C  0.83455779  0.15974969  0.70215164    -0.20200
C872        C  0.82322617  0.14463673  0.69337560    -0.12800
C873        C  0.81997656  0.14026051  0.66137008     0.03900
C874        C  0.82841012  0.15142425  0.63827989    -0.24900
H875        H  0.86554075  0.20109425  0.61430218     0.08900
H876        H  0.84589841  0.17467758  0.59905546     0.12600
H877        H  0.85631520  0.18912503  0.71258661     0.12500
H878        H  0.83678099  0.16278013  0.72700300     0.12200
H879        H  0.81701834  0.13643534  0.71179864     0.12800
H880        H  0.82619933  0.14841325  0.61347242     0.14700
C881        C  0.92110889  0.26767883  0.97498234    -0.05300
C882        C  0.90787078  0.25539610  0.96049258    -0.05200
C883        C  0.90616436  0.25436549  0.92785253    -0.23400
C884        C  0.91758816  0.26570283  0.90888666     0.18800
C885        C  0.93109251  0.27807718  0.92283158     0.16000
C886        C  0.93288398  0.27888791  0.95596480    -0.18400
C887        C  0.94232791  0.28948830  0.90330616    -0.20200
C888        C  0.94007293  0.28867630  0.87046267    -0.12800
C889        C  0.92666201  0.27631835  0.85662389     0.03900
C890        C  0.91552942  0.26487871  0.87615811    -0.24900
H891        H  0.89877423  0.24642988  0.97443757     0.08900
H892        H  0.89579215  0.24476166  0.91744881     0.12600
H893        H  0.94313978  0.28839783  0.96692345     0.12500
H894        H  0.95277545  0.29908760  0.91343164     0.12200
H895        H  0.94886925  0.29759138  0.85588525     0.12800
H896        H  0.90500344  0.25540980  0.86600508     0.14700
C897        C  0.75149249  0.06165121  0.47149111    -0.05300
C898        C  0.76430272  0.06726494  0.45257566    -0.05200
C899        C  0.76309103  0.06731568  0.41992264    -0.23400
C900        C  0.74908909  0.06215058  0.40558395     0.18800
C901        C  0.73595967  0.05599395  0.42411325     0.16000
C902        C  0.73718135  0.05546011  0.45714786    -0.18400
C903        C  0.72208783  0.05127641  0.40929787    -0.20200
C904        C  0.72150247  0.05364120  0.37689629    -0.12800
C905        C  0.73472993  0.06049492  0.35874594     0.03900
C906        C  0.74828186  0.06392230  0.37315702    -0.24900
H907        H  0.77538261  0.07191144  0.46317297     0.08900
H908        H  0.77324138  0.07203118  0.40598151     0.12600
H909        H  0.72727588  0.05119901  0.47169180     0.12500
H910        H  0.71185110  0.04642410  0.42297910     0.12200
H911        H  0.71084263  0.05069183  0.36643194     0.12800
H912        H  0.75851039  0.06870820  0.35953434     0.14700
C913        C  0.85282945  0.19659571  0.15146623    -0.05300
C914        C  0.84009249  0.19456002  0.13554748    -0.05200
C915        C  0.82565215  0.18131550  0.13988467    -0.23400
C916        C  0.82356163  0.16979050  0.16035646     0.18800
C917        C  0.83622201  0.17154791  0.17626759     0.16000
C918        C  0.85074462  0.18489012  0.17173545    -0.18400
C919        C  0.83411042  0.15998937  0.19671667    -0.20200
C920        C  0.81956346  0.14703508  0.20198268    -0.12800
C921        C  0.80679707  0.14531005  0.18685225     0.03900
C922        C  0.80897901  0.15668751  0.16558267    -0.24900
H923        H  0.84115931  0.20323888  0.11980279     0.08900
H924        H  0.81608556  0.18016546  0.12742550     0.12600
H925        H  0.86033773  0.18609348  0.18410842     0.12500
H926        H  0.84368448  0.16104750  0.20894583     0.12200
H927        H  0.81836617  0.13840438  0.21808109     0.12800
H928        H  0.79933458  0.15561948  0.15370791     0.14700
C929        C  0.32794056  0.18327028  0.17811522    -0.05300
C930        C  0.31610163  0.16954941  0.19160467    -0.05200
C931        C  0.31513111  0.15566664  0.18736524    -0.23400
C932        C  0.32602532  0.15520946  0.16965615     0.18800
C933        C  0.33793008  0.16889741  0.15586621     0.16000
C934        C  0.33878609  0.18279827  0.16006302    -0.18400
C935        C  0.34885448  0.16848220  0.13824473    -0.20200
C936        C  0.34798279  0.15465897  0.13418379    -0.12800
C937        C  0.33616965  0.14091061  0.14764516     0.03900
C938        C  0.32521878  0.14131548  0.16550802    -0.24900
H939        H  0.30747849  0.16947848  0.20537098     0.08900
H940        H  0.30588419  0.14530246  0.19803706     0.12600
H941        H  0.34805791  0.19326787  0.14975771     0.12500
H942        H  0.35810375  0.17886181  0.12761227     0.12200
H943        H  0.35670848  0.15483635  0.12062312     0.12800
H944        H  0.31598332  0.13084291  0.17585942     0.14700
C945        C  0.31737655  0.25303112  0.47873541    -0.05300
C946        C  0.31908631  0.26606762  0.46442269    -0.05200
C947        C  0.32103017  0.26803723  0.43166148    -0.23400
C948        C  0.32110830  0.25690254  0.41273023     0.18800
C949        C  0.31894886  0.24359824  0.42709661     0.16000
C950        C  0.31712893  0.24178726  0.45971153    -0.18400
C951        C  0.31874987  0.23226864  0.40874032    -0.20200
C952        C  0.32070919  0.23402789  0.37634039    -0.12800
C953        C  0.32295618  0.24717872  0.36142264     0.03900
C954        C  0.32325268  0.25870367  0.37983068    -0.24900
H955        H  0.31928716  0.27488439  0.47862422     0.08900
H956        H  0.32256807  0.27829097  0.42118978     0.12600
H957        H  0.31545244  0.23148768  0.47026506     0.12500
H958        H  0.31713664  0.22202656  0.41947695     0.12200
H959        H  0.32069333  0.22509024  0.36304788     0.12800
H960        H  0.32490181  0.26885658  0.36858117     0.14700
C961        C  0.33807160  0.14824025  0.66316131    -0.05300
C962        C  0.33866303  0.15295067  0.63189597    -0.05200
C963        C  0.33414733  0.16296861  0.62424378    -0.23400
C964        C  0.32899234  0.16856207  0.64771647     0.18800
C965        C  0.32802796  0.16370531  0.67906039     0.16000
C966        C  0.33251840  0.15359716  0.68656548    -0.18400
C967        C  0.32280541  0.16923269  0.70252458    -0.20200
C968        C  0.31902293  0.17985710  0.69517975    -0.12800
C969        C  0.32035935  0.18518791  0.66422006     0.03900
C970        C  0.32507702  0.17915899  0.64045661    -0.24900
H971        H  0.34273069  0.14902134  0.61324571     0.08900
H972        H  0.33488540  0.16650687  0.59999650     0.12600
H973        H  0.33183201  0.15015132  0.71080001     0.12500
H974        H  0.32189712  0.16554773  0.72669801     0.12200
H975        H  0.31537880  0.18413694  0.71400719     0.12800
H976        H  0.32594514  0.18281289  0.61631085     0.14700
C977        C  0.35921670  0.09595860  0.85552396    -0.05300
C978        C  0.36172223  0.10860536  0.87344326    -0.05200
C979        C  0.36037481  0.10773471  0.90608283    -0.23400
C980        C  0.35624966  0.09409385  0.92142101     0.18800
C981        C  0.35400957  0.08135930  0.90389290     0.16000
C982        C  0.35575425  0.08245062  0.87092559    -0.18400
C983        C  0.34956377  0.06765019  0.91960902    -0.20200
C984        C  0.34701110  0.06649251  0.95218963    -0.12800
C985        C  0.34906245  0.07908896  0.96963537     0.03900
C986        C  0.35390105  0.09291840  0.95394947    -0.24900
H987        H  0.36460515  0.11919190  0.86213179     0.08900
H988        H  0.36219440  0.11761631  0.91924237     0.12600
H989        H  0.35371527  0.07262286  0.85720621     0.12500
H990        H  0.34778883  0.05774741  0.90664159     0.12200
H991        H  0.34340264  0.05573933  0.96366730     0.12800
H992        H  0.35535475  0.10271690  0.96668143     0.14700
C993        C  0.02563235  0.29666718  0.26782555    -0.05300
C994        C  0.02895455  0.29956199  0.23554600    -0.05200
C995        C  0.01740900  0.29487991  0.21300902    -0.23400
C996        C  0.00221047  0.28706424  0.22213317     0.18800
C997        C  0.99867760  0.28402280  0.25442807     0.16000
C998        C  0.01036565  0.28890460  0.27702961    -0.18400
C999        C  0.98348241  0.27603554  0.26357325    -0.20200
C1000       C  0.97190924  0.27099328  0.24102401    -0.12800
C1001       C  0.97521119  0.27389274  0.20875323     0.03900
C1002       C  0.99049202  0.28211421  0.19952808    -0.24900
H1003       H  0.04054127  0.30560367  0.22757424     0.08900
H1004       H  0.02038159  0.29733025  0.18839217     0.12600
H1005       H  0.00750979  0.28641273  0.30167406     0.12500
H1006       H  0.98052205  0.27360975  0.28820264     0.12200
H1007       H  0.96032877  0.26490802  0.24905062     0.12800
H1008       H  0.99326096  0.28438505  0.17479193     0.14700
C1009       C  0.19476004  0.33603799  0.32857090    -0.05300
C1010       C  0.19040988  0.33496870  0.36023044    -0.05200
C1011       C  0.17621756  0.33208755  0.36785896    -0.23400
C1012       C  0.16604626  0.33021030  0.34400938     0.18800
C1013       C  0.17021963  0.33123499  0.31216115     0.16000
C1014       C  0.18448531  0.33411714  0.30465462    -0.18400
C1015       C  0.16005394  0.32938412  0.28831700    -0.20200
C1016       C  0.14585944  0.32650576  0.29594011    -0.12800
C1017       C  0.14149988  0.32539450  0.32757995     0.03900
C1018       C  0.15178177  0.32732513  0.35150819    -0.24900
H1019       H  0.19793012  0.33633983  0.37927477     0.08900
H1020       H  0.17320085  0.33133036  0.39246038     0.12600
H1021       H  0.18749950  0.33489761  0.28009793     0.12500
H1022       H  0.16306984  0.33013803  0.26371727     0.12200
H1023       H  0.13829676  0.32506521  0.27691937     0.12800
H1024       H  0.14881355  0.32663882  0.37607057     0.14700
C1025       C  0.07289384  0.33152201  0.63107863    -0.05300
C1026       C  0.06701008  0.33851488  0.61326799    -0.05200
C1027       C  0.06435259  0.33564652  0.58073126    -0.23400
C1028       C  0.06755718  0.32575251  0.56533882     0.18800
C1029       C  0.07312207  0.31840298  0.58324474     0.16000
C1030       C  0.07562139  0.32122502  0.61580851    -0.18400
C1031       C  0.07651183  0.30863444  0.56820163    -0.20200
C1032       C  0.07502114  0.30663266  0.53555430    -0.12800
C1033       C  0.06990788  0.31416620  0.51720218     0.03900
C1034       C  0.06577669  0.32342260  0.53234101    -0.24900
H1035       H  0.06480586  0.34651705  0.62426551     0.08900
H1036       H  0.06008491  0.34141373  0.56751293     0.12600
H1037       H  0.07991120  0.31550612  0.62910424     0.12500
H1038       H  0.08071092  0.30284386  0.58159788     0.12200
H1039       H  0.07810933  0.29931620  0.52451770     0.12800
H1040       H  0.06192617  0.32937111  0.51837959     0.14700
C1041       C  0.26014029  0.28232539  0.80182556    -0.05300
C1042       C  0.26786033  0.27638260  0.81649027    -0.05200
C1043       C  0.27413630  0.26988406  0.79861607    -0.23400
C1044       C  0.27291384  0.26923810  0.76561723     0.18800
C1045       C  0.26521644  0.27519397  0.75061535     0.16000
C1046       C  0.25882248  0.28158633  0.76873061    -0.18400
C1047       C  0.26411758  0.27475367  0.71766852    -0.20200
C1048       C  0.27058540  0.26853226  0.69969980    -0.12800
C1049       C  0.27827340  0.26251162  0.71417032     0.03900
C1050       C  0.27931085  0.26284419  0.74734640    -0.24900
H1051       H  0.26898976  0.27663169  0.84189756     0.08900
H1052       H  0.27999024  0.26539833  0.81063828     0.12600
H1053       H  0.25306588  0.28622649  0.75692381     0.12500
H1054       H  0.25825781  0.27925449  0.70572163     0.12200
H1055       H  0.26938078  0.26831534  0.67432369     0.12800
H1056       H  0.28528042  0.25837645  0.75893788     0.14700
C1057       C  0.25775573  0.33748483  0.02593698    -0.05300
C1058       C  0.25495775  0.34827126  0.03841484    -0.05200
C1059       C  0.25705802  0.35205063  0.07036681    -0.23400
C1060       C  0.26215123  0.34525438  0.09068285     0.18800
C1061       C  0.26596052  0.33511328  0.07849879     0.16000
C1062       C  0.26376946  0.33128598  0.04601958    -0.18400
C1063       C  0.27138624  0.32866376  0.09931802    -0.20200
C1064       C  0.27233892  0.33171558  0.13189114    -0.12800
C1065       C  0.26771910  0.34110664  0.14405859     0.03900
C1066       C  0.26301641  0.34812461  0.12316116    -0.24900
H1067       H  0.25085915  0.35369840  0.02360938     0.08900
H1068       H  0.25435608  0.36006132  0.07931185     0.12600
H1069       H  0.26614375  0.32308206  0.03677359     0.12500
H1070       H  0.27451022  0.32096474  0.09053806     0.12200
H1071       H  0.27602789  0.32621101  0.14765672     0.12800
H1072       H  0.25968044  0.35560557  0.13231692     0.14700
C1073       C  0.18418487  0.32564897  0.83427444    -0.05300
C1074       C  0.17636360  0.31946548  0.80546586    -0.05200
C1075       C  0.16461620  0.32119487  0.79641961    -0.23400
C1076       C  0.16044178  0.32921089  0.81589623     0.18800
C1077       C  0.16808915  0.33541248  0.84494634     0.16000
C1078       C  0.17986489  0.33360191  0.85394772    -0.18400
C1079       C  0.16390636  0.34343880  0.86439264    -0.20200
C1080       C  0.15246752  0.34557308  0.85485198    -0.12800
C1081       C  0.14491045  0.33970003  0.82567182     0.03900
C1082       C  0.14889583  0.33130220  0.80655119    -0.24900
H1083       H  0.17926602  0.31324668  0.78976011     0.08900
H1084       H  0.15885029  0.31632951  0.77403773     0.12600
H1085       H  0.18565576  0.33851233  0.87623283     0.12500
H1086       H  0.16959867  0.34822213  0.88687338     0.12200
H1087       H  0.14969147  0.35197618  0.87031882     0.12800
H1088       H  0.14324432  0.32654153  0.78409144     0.14700
C1089       C  0.05805371  0.40932980  0.94466412    -0.05300
C1090       C  0.06406256  0.40154198  0.95873981    -0.05200
C1091       C  0.06928677  0.39422581  0.94034095    -0.23400
C1092       C  0.06854172  0.39444833  0.90738708     0.18800
C1093       C  0.06246430  0.40214249  0.89281791     0.16000
C1094       C  0.05737334  0.40965827  0.91151940    -0.18400
C1095       C  0.06149736  0.40208230  0.85978992    -0.20200
C1096       C  0.06656277  0.39453736  0.84146442    -0.12800
C1097       C  0.07285550  0.38706618  0.85574955     0.03900
C1098       C  0.07377159  0.38706793  0.88883719    -0.24900
H1099       H  0.06488190  0.40119134  0.98413309     0.08900
H1100       H  0.07389147  0.38837369  0.95191421     0.12600
H1101       H  0.05263368  0.41545625  0.90030560     0.12500
H1102       H  0.05683624  0.40785901  0.84814365     0.12200
H1103       H  0.06577439  0.39478240  0.81602748     0.12800
H1104       H  0.07837217  0.38116868  0.90021132     0.14700
C1105       C  0.00846526  0.53161192  0.98452683    -0.05300
C1106       C  0.00567840  0.52585519  0.01539854    -0.05200
C1107       C  0.00784615  0.51418390  0.02376228    -0.23400
C1108       C  0.01287254  0.50797480  0.00147873     0.18800
C1109       C  0.01573595  0.51359013  0.97039375     0.16000
C1110       C  0.01350156  0.52532424  0.96209513    -0.18400
C1111       C  0.02081947  0.50738180  0.94816716    -0.20200
C1112       C  0.02305600  0.49574912  0.95667327    -0.12800
C1113       C  0.02017569  0.48999517  0.98752509     0.03900
C1114       C  0.01508888  0.49625712  0.00982737    -0.24900
H1115       H  0.00189033  0.53039784  0.03334021     0.08900
H1116       H  0.00560991  0.51003166  0.04775323     0.12600
H1117       H  0.01565600  0.52945504  0.93812877     0.12500
H1118       H  0.02305815  0.51151264  0.92416935     0.12200
H1119       H  0.02685966  0.49113355  0.93888551     0.12800
H1120       H  0.01294940  0.49214815  0.03381856     0.14700
C1121       C  0.02297252  0.60426949  0.68407573    -0.05300
C1122       C  0.03134906  0.59998862  0.70176457    -0.05200
C1123       C  0.03072922  0.59961251  0.73453560    -0.23400
C1124       C  0.02147319  0.60322855  0.75035662     0.18800
C1125       C  0.01325687  0.60797512  0.73310292     0.16000
C1126       C  0.01424036  0.60871142  0.69989295    -0.18400
C1127       C  0.00384541  0.61133260  0.74942055    -0.20200
C1128       C  0.00219013  0.60943239  0.78222521    -0.12800
C1129       C  0.00999219  0.60423526  0.79931580     0.03900
C1130       C  0.01995384  0.60161828  0.78310809    -0.24900
H1131       H  0.03825213  0.59667482  0.69011123     0.08900
H1132       H  0.03714476  0.59601601  0.74746397     0.12600
H1133       H  0.00765122  0.61191828  0.68638391     0.12500
H1134       H  0.99745684  0.61502405  0.73673058     0.12200
H1135       H  0.99447128  0.61160176  0.79399844     0.12800
H1136       H  0.02636109  0.59796150  0.79579539     0.14700
C1137       C  0.95746464  0.35598498  0.51573266    -0.05300
C1138       C  0.95072384  0.34068734  0.50496492    -0.05200
C1139       C  0.94454990  0.32850373  0.52619684    -0.23400
C1140       C  0.94504420  0.33134283  0.55867876     0.18800
C1141       C  0.95202733  0.34666713  0.56989233     0.16000
C1142       C  0.95817715  0.35886520  0.54840755    -0.18400
C1143       C  0.95264407  0.34950699  0.60240586    -0.20200
C1144       C  0.94633667  0.33729388  0.62360684    -0.12800
C1145       C  0.93922233  0.32195714  0.61276488     0.03900
C1146       C  0.93865830  0.31911771  0.58010166    -0.24900
H1147       H  0.94988085  0.33802298  0.48004502     0.08900
H1148       H  0.93926429  0.31682199  0.51715043     0.12600
H1149       H  0.96348266  0.37057857  0.55722732     0.12500
H1150       H  0.95795977  0.36118846  0.61146976     0.12200
H1151       H  0.94690104  0.33990856  0.64850135     0.12800
H1152       H  0.93338711  0.30742116  0.57121734     0.14700
C1153       C  0.00139286  0.40615665  0.16366883    -0.05300
C1154       C  0.00912681  0.40224117  0.18452113    -0.05200
C1155       C  0.00457140  0.39867742  0.21594132    -0.23400
C1156       C  0.99224592  0.39902986  0.22689646     0.18800
C1157       C  0.98404203  0.40227785  0.20555168     0.16000
C1158       C  0.98853521  0.40559824  0.17415075    -0.18400
C1159       C  0.97186965  0.40288089  0.21619334    -0.20200
C1160       C  0.96833725  0.40112490  0.24807689    -0.12800
C1161       C  0.97668748  0.39841081  0.26976335     0.03900
C1162       C  0.98835265  0.39686826  0.25896048    -0.24900
H1163       H  0.01906875  0.40256973  0.17693969     0.08900
H1164       H  0.01098150  0.39617059  0.23187833     0.12600
H1165       H  0.98227881  0.40826852  0.15811918     0.12500
H1166       H  0.96543144  0.40527283  0.20005797     0.12200
H1167       H  0.95920786  0.40217900  0.25593646     0.12800
H1168       H  0.99490390  0.39488648  0.27565882     0.14700
C1169       C  0.98045413  0.47061890  0.45309648    -0.05300
C1170       C  0.97610559  0.47811691  0.43246219    -0.05200
C1171       C  0.98053094  0.49332502  0.43829456    -0.23400
C1172       C  0.98945384  0.50140215  0.46485345     0.18800
C1173       C  0.99384942  0.49398545  0.48585690     0.16000
C1174       C  0.98928772  0.47865426  0.47994297    -0.18400
C1175       C  0.00279211  0.50205777  0.51237902    -0.20200
C1176       C  0.00720279  0.51725295  0.51824193    -0.12800
C1177       C  0.00281588  0.52475876  0.49769410     0.03900
C1178       C  0.99399504  0.51673277  0.47081755    -0.24900
H1179       H  0.96918915  0.47220969  0.41177259     0.08900
H1180       H  0.97699126  0.49877687  0.42196755     0.12600
H1181       H  0.99286713  0.47312504  0.49594316     0.12500
H1182       H  0.00635578  0.49661132  0.52866212     0.12200
H1183       H  0.01415240  0.52313497  0.53890322     0.12800
H1184       H  0.99043132  0.52227680  0.45482212     0.14700
C1185       C  0.06370441  0.69137565  0.37069505    -0.05300
C1186       C  0.07012631  0.69479554  0.40128588    -0.05200
C1187       C  0.06422428  0.68357690  0.42463377    -0.23400
C1188       C  0.05180488  0.66862570  0.41798494     0.18800
C1189       C  0.04522094  0.66495622  0.38742488     0.16000
C1190       C  0.05113723  0.67634314  0.36409250    -0.18400
C1191       C  0.03294722  0.64989342  0.38065343    -0.20200
C1192       C  0.02743503  0.63853062  0.40373179    -0.12800
C1193       C  0.03389926  0.64207459  0.43418826     0.03900
C1194       C  0.04600021  0.65723114  0.44123804    -0.24900
H1195       H  0.07978385  0.70614446  0.40741326     0.08900
H1196       H  0.06946674  0.68658982  0.44790539     0.12600
H1197       H  0.04596865  0.67337999  0.34078914     0.12500
H1198       H  0.02772155  0.64684432  0.35737159     0.12200
H1199       H  0.01804800  0.62695879  0.39781152     0.12800
H1200       H  0.05120444  0.66006117  0.46454750     0.14700
C1201       C  0.28323243  0.98007194  0.28404256    -0.05300
C1202       C  0.29047433  0.99481656  0.29822870    -0.05200
C1203       C  0.29587536  0.00798659  0.27995647    -0.23400
C1204       C  0.29424153  0.00671329  0.24703424     0.18800
C1205       C  0.28698600  0.99198382  0.23251475     0.16000
C1206       C  0.28145352  0.97878998  0.25103100    -0.18400
C1207       C  0.28552486  0.99066845  0.19959918    -0.20200
C1208       C  0.29135365  0.00382114  0.18120101    -0.12800
C1209       C  0.29860509  0.01855714  0.19526446     0.03900
C1210       C  0.29988681  0.01991374  0.22836734    -0.24900
H1211       H  0.29192196  0.99625285  0.32356494     0.08900
H1212       H  0.30139741  0.01915763  0.29156553     0.12600
H1213       H  0.27603870  0.96760134  0.23959210     0.12500
H1214       H  0.27997764  0.97948275  0.18805606     0.12200
H1215       H  0.29003455  0.00239687  0.15582419     0.12800
H1216       H  0.30555063  0.03119683  0.23952742     0.14700
C1217       C  0.14889654  0.81157614  0.30219972    -0.05300
C1218       C  0.15239718  0.82455555  0.28457331    -0.05200
C1219       C  0.16641002  0.83856658  0.28828351    -0.23400
C1220       C  0.17728972  0.83991672  0.30960948     0.18800
C1221       C  0.17384081  0.82705771  0.32784913     0.16000
C1222       C  0.15967665  0.81303394  0.32419225    -0.18400
C1223       C  0.18471175  0.82838267  0.34913128    -0.20200
C1224       C  0.19886483  0.84226264  0.35226450    -0.12800
C1225       C  0.20250546  0.85519676  0.33425713     0.03900
C1226       C  0.19156324  0.85386960  0.31288829    -0.24900
H1227       H  0.14431182  0.82391514  0.26777017     0.08900
H1228       H  0.16878734  0.84831733  0.27421641     0.12600
H1229       H  0.15726291  0.80317973  0.33791058     0.12500
H1230       H  0.18230344  0.81864328  0.36328327     0.12200
H1231       H  0.20698450  0.84276036  0.36874224     0.12800
H1232       H  0.19404223  0.86368153  0.29895387     0.14700
C1233       C  0.28226206  0.92748246  0.51116799    -0.05300
C1234       C  0.28966855  0.94154392  0.52816554    -0.05200
C1235       C  0.29170438  0.94184482  0.56095880    -0.23400
C1236       C  0.28621989  0.92807192  0.57734988     0.18800
C1237       C  0.27918421  0.91400528  0.56021553     0.16000
C1238       C  0.27746545  0.91384462  0.52751908    -0.18400
C1239       C  0.27341264  0.90012583  0.57606916    -0.20200
C1240       C  0.27391806  0.90003309  0.60878697    -0.12800
C1241       C  0.28042612  0.91381491  0.62631379     0.03900
C1242       C  0.28704550  0.92793642  0.61052341    -0.24900
H1243       H  0.29365945  0.95230095  0.51632429     0.08900
H1244       H  0.29719233  0.95277839  0.57355995     0.12600
H1245       H  0.27191529  0.90287688  0.51516339     0.12500
H1246       H  0.26805384  0.88926421  0.56321240     0.12200
H1247       H  0.26894013  0.88906509  0.62051296     0.12800
H1248       H  0.29200835  0.93859654  0.62399105     0.14700
C1249       C  0.14826324  0.80971109  0.82003939    -0.05300
C1250       C  0.15218211  0.81264273  0.78805124    -0.05200
C1251       C  0.16705254  0.82367462  0.77936769    -0.23400
C1252       C  0.17831570  0.83199511  0.80246931     0.18800
C1253       C  0.17454441  0.82924211  0.83464797     0.16000
C1254       C  0.15958979  0.81816956  0.84321087    -0.18400
C1255       C  0.18582105  0.83755015  0.85774013    -0.20200
C1256       C  0.20073274  0.84844890  0.84904305    -0.12800
C1257       C  0.20467419  0.85127120  0.81705562     0.03900
C1258       C  0.19329207  0.84295749  0.79390475    -0.24900
H1259       H  0.14379609  0.80645845  0.76958788     0.08900
H1260       H  0.16974951  0.82566571  0.75452921     0.12600
H1261       H  0.15691805  0.81611131  0.86799320     0.12500
H1262       H  0.18311981  0.83559088  0.88257512     0.12200
H1263       H  0.20912787  0.85462468  0.86749885     0.12800
H1264       H  0.19597916  0.84485093  0.76910050     0.14700
C1265       C  0.07091776  0.74776813  0.01029461    -0.05300
C1266       C  0.07645376  0.76146358  0.02758194    -0.05200
C1267       C  0.07628106  0.76139698  0.06033146    -0.23400
C1268       C  0.07092604  0.74767148  0.07652516     0.18800
C1269       C  0.06509231  0.73368398  0.05963990     0.16000
C1270       C  0.06484809  0.73375236  0.02634809    -0.18400
C1271       C  0.06016816  0.72011691  0.07650007    -0.20200
C1272       C  0.06167650  0.72061901  0.10954557    -0.12800
C1273       C  0.06794250  0.73466112  0.12624455     0.03900
C1274       C  0.07194627  0.74796561  0.10940215    -0.24900
H1275       H  0.08108038  0.77233176  0.01564421     0.08900
H1276       H  0.08079882  0.77220157  0.07301999     0.12600
H1277       H  0.06069973  0.72316747  0.01306267     0.12500
H1278       H  0.05561939  0.70924053  0.06410091     0.12200
H1279       H  0.05838716  0.71013790  0.12183786     0.12800
H1280       H  0.07635950  0.75882367  0.12169671     0.14700
C1281       C  0.73321400  0.01787809  0.71712255    -0.05300
C1282       C  0.73453593  0.02149201  0.74951666    -0.05200
C1283       C  0.72768217  0.00987897  0.77200302    -0.23400
C1284       C  0.71940745  0.99431773  0.76274447     0.18800
C1285       C  0.71796177  0.99042920  0.73032648     0.16000
C1286       C  0.72477923  0.00221321  0.70769593    -0.18400
C1287       C  0.70982131  0.97481709  0.72122586    -0.20200
C1288       C  0.70332898  0.96322722  0.74396158    -0.12800
C1289       C  0.70468747  0.96694958  0.77633817     0.03900
C1290       C  0.71269104  0.98261097  0.78543392    -0.24900
H1291       H  0.74074642  0.03335723  0.75765907     0.08900
H1292       H  0.72890844  0.01309790  0.79674487     0.12600
H1293       H  0.72369705  0.99916194  0.68288641     0.12500
H1294       H  0.70854173  0.97155486  0.69650816     0.12200
H1295       H  0.69712920  0.95131417  0.73607597     0.12800
H1296       H  0.71398793  0.98574820  0.81022095     0.14700
C1297       C  0.66094826  0.80119157  0.79266739    -0.05300
C1298       C  0.66725207  0.81314713  0.77050745    -0.05200
C1299       C  0.66911010  0.82723955  0.77739244    -0.23400
C1300       C  0.66479957  0.82978075  0.80667954     0.18800
C1301       C  0.65845534  0.81794805  0.82925679     0.16000
C1302       C  0.65655716  0.80371839  0.82214267    -0.18400
C1303       C  0.65418598  0.82060988  0.85856511    -0.20200
C1304       C  0.65637095  0.83490623  0.86552270    -0.12800
C1305       C  0.66284151  0.84684647  0.84328181     0.03900
C1306       C  0.66690023  0.84405193  0.81374820    -0.24900
H1307       H  0.67091460  0.81176158  0.74773057     0.08900
H1308       H  0.67402032  0.83620038  0.75981613     0.12600
H1309       H  0.65159616  0.79465923  0.83947285     0.12500
H1310       H  0.64924613  0.81167627  0.87619457     0.12200
H1311       H  0.65300804  0.83654015  0.88844009     0.12800
H1312       H  0.67187305  0.85298822  0.79619050     0.14700
C1313       C  0.65219832  0.91930118  0.01151991    -0.05300
C1314       C  0.65903954  0.93292208  0.02976696    -0.05200
C1315       C  0.65515057  0.93245311  0.06153254    -0.23400
C1316       C  0.64446844  0.91831963  0.07550485     0.18800
C1317       C  0.63692847  0.90477058  0.05662170     0.16000
C1318       C  0.64059756  0.90542069  0.02479734    -0.18400
C1319       C  0.62649381  0.89054487  0.07021344    -0.20200
C1320       C  0.62429635  0.88954638  0.10265203    -0.12800
C1321       C  0.63212034  0.90277594  0.12196693     0.03900
C1322       C  0.64178405  0.91728515  0.10820955    -0.24900
H1323       H  0.66793495  0.94378704  0.02000333     0.08900
H1324       H  0.66099012  0.94299138  0.07548951     0.12600
H1325       H  0.63490395  0.89489141  0.01079206     0.12500
H1326       H  0.62058436  0.88008210  0.05599739     0.12200
H1327       H  0.61673010  0.87830576  0.11286509     0.12800
H1328       H  0.64792860  0.92750140  0.12310727     0.14700
C1329       C  0.67000934  0.73650951  0.48863527    -0.05300
C1330       C  0.67802044  0.73149190  0.50544231    -0.05200
C1331       C  0.67498359  0.72757809  0.53734961    -0.23400
C1332       C  0.66391256  0.72866481  0.55297795     0.18800
C1333       C  0.65541385  0.73310307  0.53580278     0.16000
C1334       C  0.65838462  0.73679091  0.50385292    -0.18400
C1335       C  0.64453254  0.73451270  0.55115530    -0.20200
C1336       C  0.64268350  0.73243630  0.58361933    -0.12800
C1337       C  0.65135599  0.72850238  0.60118993     0.03900
C1338       C  0.66165443  0.72613914  0.58567445    -0.24900
H1339       H  0.68701202  0.73113389  0.49429399     0.08900
H1340       H  0.68161331  0.72417957  0.55002676     0.12600
H1341       H  0.65187403  0.74030974  0.49111065     0.12500
H1342       H  0.63791669  0.73788287  0.53830413     0.12200
H1343       H  0.63478575  0.73439719  0.59529662     0.12800
H1344       H  0.66855769  0.72337075  0.59929442     0.14700
C1345       C  0.64651136  0.84467945  0.31357455    -0.05300
C1346       C  0.64514541  0.83927884  0.34449397    -0.05200
C1347       C  0.65058145  0.83007115  0.35258086    -0.23400
C1348       C  0.65753728  0.82607150  0.32994247     0.18800
C1349       C  0.65908872  0.83149523  0.29890094     0.16000
C1350       C  0.65361230  0.84072513  0.29095215    -0.18400
C1351       C  0.66607530  0.82757361  0.27624372    -0.20200
C1352       C  0.67140761  0.81828715  0.28415664    -0.12800
C1353       C  0.66987949  0.81267125  0.31492393     0.03900
C1354       C  0.66293239  0.81672892  0.33776606    -0.24900
H1355       H  0.63973903  0.84202500  0.36246244     0.08900
H1356       H  0.64928607  0.82602468  0.37656381     0.12600
H1357       H  0.65500312  0.84484074  0.26705737     0.12500
H1358       H  0.66736391  0.83163953  0.25227295     0.12200
H1359       H  0.67659177  0.81540353  0.26594921     0.12800
H1360       H  0.66170422  0.81269210  0.36170603     0.14700
C1361       C  0.97872793  0.69547251  0.70124593    -0.05300
C1362       C  0.97525641  0.69327060  0.73352912    -0.05200
C1363       C  0.98674258  0.69865711  0.75636955    -0.23400
C1364       C  0.00194947  0.70644006  0.74739448     0.18800
C1365       C  0.00554872  0.70835602  0.71502809     0.16000
C1366       C  0.99393564  0.70275039  0.69218858    -0.18400
C1367       C  0.02074324  0.71619758  0.70603431    -0.20200
C1368       C  0.03229039  0.72238753  0.72884872    -0.12800
C1369       C  0.02891109  0.72084661  0.76119239     0.03900
C1370       C  0.01361606  0.71261926  0.77023286    -0.24900
H1371       H  0.96364528  0.68748683  0.74124808     0.08900
H1372       H  0.98374223  0.69697415  0.78106749     0.12600
H1373       H  0.99683740  0.70460526  0.66746300     0.12500
H1374       H  0.02372053  0.71772788  0.68132476     0.12200
H1375       H  0.04388254  0.72844165  0.72095390     0.12800
H1376       H  0.01072026  0.71131108  0.79494962     0.14700
C1377       C  0.86679300  0.67496359  0.64520248    -0.05300
C1378       C  0.86401466  0.67579880  0.67732126    -0.05200
C1379       C  0.85059066  0.67420516  0.68685699    -0.23400
C1380       C  0.83957265  0.67165589  0.66453856     0.18800
C1381       C  0.84228444  0.67111176  0.63217538     0.16000
C1382       C  0.85586193  0.67281532  0.62270271    -0.18400
C1383       C  0.83123881  0.66860088  0.60989980    -0.20200
C1384       C  0.81745302  0.66616445  0.61965863    -0.12800
C1385       C  0.81442694  0.66623636  0.65191386     0.03900
C1386       C  0.82576977  0.66932684  0.67415657    -0.24900
H1387       H  0.87210601  0.67750597  0.69533020     0.08900
H1388       H  0.84872943  0.67473079  0.71180521     0.12600
H1389       H  0.85773988  0.67226745  0.59781496     0.12500
H1390       H  0.83314188  0.66823832  0.58492091     0.12200
H1391       H  0.80907538  0.66391276  0.60185086     0.12800
H1392       H  0.82386893  0.66972039  0.69908259     0.14700
C1393       C  0.93585844  0.62510006  0.09177959    -0.05300
C1394       C  0.93480985  0.62710899  0.05928005    -0.05200
C1395       C  0.94141198  0.62249817  0.03716622    -0.23400
C1396       C  0.94912025  0.61569672  0.04709262     0.18800
C1397       C  0.95019434  0.61360955  0.07964770     0.16000
C1398       C  0.94362651  0.61832425  0.10165190    -0.18400
C1399       C  0.95776470  0.60674841  0.08979809    -0.20200
C1400       C  0.96413292  0.60186402  0.06796353    -0.12800
C1401       C  0.96315895  0.60377940  0.03543143     0.03900
C1402       C  0.95567487  0.61083986  0.02514638    -0.24900
H1403       H  0.92901935  0.63238524  0.05085206     0.08900
H1404       H  0.94046131  0.62422846  0.01231606     0.12600
H1405       H  0.94444835  0.61649899  0.12647476     0.12500
H1406       H  0.95874246  0.60511846  0.11469432     0.12200
H1407       H  0.96997713  0.59671599  0.07678306     0.12800
H1408       H  0.95474217  0.61235871  0.00018648     0.14700
C1409       C  0.93072572  0.66090644  0.33728155    -0.05300
C1410       C  0.93649310  0.65334825  0.35337298    -0.05200
C1411       C  0.93935428  0.65554189  0.38605320    -0.23400
C1412       C  0.93644222  0.66529159  0.40314224     0.18800
C1413       C  0.93118067  0.67331209  0.38672725     0.16000
C1414       C  0.92858400  0.67123348  0.35416081    -0.18400
C1415       C  0.92801818  0.68291685  0.40320648    -0.20200
C1416       C  0.92933442  0.68405065  0.43589343    -0.12800
C1417       C  0.93410434  0.67585270  0.45282519     0.03900
C1418       C  0.93810792  0.66679065  0.43631703    -0.24900
H1419       H  0.93832241  0.64537377  0.34093778     0.08900
H1420       H  0.94343597  0.64930244  0.39805975     0.12600
H1421       H  0.92454042  0.67749448  0.34211869     0.12500
H1422       H  0.92402839  0.68917289  0.39089605     0.12200
H1423       H  0.92630155  0.69115856  0.44813475     0.12800
H1424       H  0.94166656  0.66032337  0.44929333     0.14700
C1425       C  0.71970201  0.74426024  0.25363236    -0.05300
C1426       C  0.71887080  0.74617384  0.22104428    -0.05200
C1427       C  0.72514767  0.74102378  0.19934546    -0.23400
C1428       C  0.73257238  0.73400088  0.20975242     0.18800
C1429       C  0.73354173  0.73204791  0.24242209     0.16000
C1430       C  0.72699282  0.73703073  0.26407945    -0.18400
C1431       C  0.74119852  0.72529090  0.25291189    -0.20200
C1432       C  0.74790215  0.72059668  0.23131843    -0.12800
C1433       C  0.74694434  0.72234477  0.19868385     0.03900
C1434       C  0.73914837  0.72902479  0.18809624    -0.24900
H1435       H  0.71322404  0.75153577  0.21220513     0.08900
H1436       H  0.72427048  0.74262607  0.17439850     0.12600
H1437       H  0.72787999  0.73556164  0.28907817     0.12500
H1438       H  0.74207011  0.72369314  0.27786633     0.12200
H1439       H  0.75366665  0.71537727  0.24025977     0.12800
H1440       H  0.73840571  0.73059803  0.16308369     0.14700
C1441       C  0.85985472  0.66415972  0.15442631    -0.05300
C1442       C  0.85205116  0.65908788  0.12534731    -0.05200
C1443       C  0.84114019  0.66217213  0.11728254    -0.23400
C1444       C  0.83782057  0.67046180  0.13803965     0.18800
C1445       C  0.84543826  0.67554561  0.16743556     0.16000
C1446       C  0.85636760  0.67233371  0.17549484    -0.18400
C1447       C  0.84206550  0.68386511  0.18807331    -0.20200
C1448       C  0.83137674  0.68725900  0.17949047    -0.12800
C1449       C  0.82379750  0.68236645  0.15010848     0.03900
C1450       C  0.82708651  0.67383800  0.12966589    -0.24900
H1451       H  0.85427615  0.65263063  0.10874631     0.08900
H1452       H  0.83534110  0.65812657  0.09466306     0.12600
H1453       H  0.86227391  0.67642595  0.19796909     0.12500
H1454       H  0.84777354  0.68784777  0.21079322     0.12200
H1455       H  0.82915359  0.69379859  0.19585946     0.12800
H1456       H  0.82139884  0.66980438  0.10700859     0.14700
C1457       C  0.74999563  0.67538407  0.96198321    -0.05300
C1458       C  0.74395956  0.68214143  0.94389477    -0.05200
C1459       C  0.74053358  0.67843659  0.91169083    -0.23400
C1460       C  0.74310949  0.66791114  0.89695671     0.18800
C1461       C  0.74861820  0.66065171  0.91531374     0.16000
C1462       C  0.75189184  0.66432370  0.94750732    -0.18400
C1463       C  0.75132672  0.65020470  0.90101814    -0.20200
C1464       C  0.74946444  0.64762264  0.86851800    -0.12800
C1465       C  0.74460012  0.65518975  0.84960688     0.03900
C1466       C  0.74089320  0.66495319  0.86410631    -0.24900
H1467       H  0.74231846  0.69065481  0.95436708     0.08900
H1468       H  0.73626183  0.68410262  0.89816469     0.12600
H1469       H  0.75620470  0.65872085  0.96110842     0.12500
H1470       H  0.75540913  0.64443086  0.91480952     0.12200
H1471       H  0.75217007  0.63989763  0.85798171     0.12800
H1472       H  0.73716896  0.67087611  0.84972104     0.14700
C1473       C  0.39398900  0.34507783  0.04209872    -0.05300
C1474       C  0.38527546  0.33018982  0.02860620    -0.05200
C1475       C  0.37775860  0.31715357  0.04761572    -0.23400
C1476       C  0.37872739  0.31871029  0.08055463     0.18800
C1477       C  0.38726777  0.33360005  0.09445143     0.16000
C1478       C  0.39489283  0.34666389  0.07518199    -0.18400
C1479       C  0.38805549  0.33515005  0.12740231    -0.20200
C1480       C  0.38062275  0.32209117  0.14641277    -0.12800
C1481       C  0.37232718  0.30719172  0.13289633     0.03900
C1482       C  0.37137372  0.30563339  0.09980889    -0.24900
H1483       H  0.38441981  0.32855425  0.00327591     0.08900
H1484       H  0.37123722  0.30583128  0.03651521     0.12600
H1485       H  0.40138876  0.35804487  0.08600750     0.12500
H1486       H  0.39450828  0.34647357  0.13851013     0.12200
H1487       H  0.38163535  0.32368306  0.17175539     0.12800
H1488       H  0.36485051  0.29425742  0.08895980     0.14700
C1489       C  0.61243224  0.64613661  0.94126892    -0.05300
C1490       C  0.61744991  0.66097542  0.95276274    -0.05200
C1491       C  0.62245445  0.67329404  0.93213234    -0.23400
C1492       C  0.62263608  0.67109043  0.89950995     0.18800
C1493       C  0.61776290  0.65628791  0.88765133     0.16000
C1494       C  0.61266656  0.64392496  0.90851684    -0.18400
C1495       C  0.61803521  0.65409644  0.85508473    -0.20200
C1496       C  0.62297550  0.66638340  0.83442402    -0.12800
C1497       C  0.62777475  0.68120427  0.84575602     0.03900
C1498       C  0.62757681  0.68341466  0.87857547    -0.24900
H1499       H  0.61730428  0.66306778  0.97773940     0.08900
H1500       H  0.62613758  0.68455653  0.94172939     0.12600
H1501       H  0.60899811  0.63262677  0.89919096     0.12500
H1502       H  0.61436554  0.64283300  0.84551961     0.12200
H1503       H  0.62289492  0.66414346  0.80947322     0.12800
H1504       H  0.63128796  0.69469946  0.88801215     0.14700
C1505       C  0.48586925  0.46794848  0.99564789    -0.05300
C1506       C  0.49451789  0.46969088  0.02263130    -0.05200
C1507       C  0.50834112  0.48359615  0.02887662    -0.23400
C1508       C  0.51378647  0.49604618  0.00830218     0.18800
C1509       C  0.50523353  0.49443599  0.98111311     0.16000
C1510       C  0.49137687  0.48048635  0.97504091    -0.18400
C1511       C  0.51064814  0.50683332  0.96045953    -0.20200
C1512       C  0.52432713  0.52080474  0.96688183    -0.12800
C1513       C  0.53288403  0.52268394  0.99412310     0.03900
C1514       C  0.52755483  0.51011245  0.01457709    -0.24900
H1515       H  0.49070115  0.46030349  0.03888720     0.08900
H1516       H  0.51476991  0.48461344  0.04985524     0.12600
H1517       H  0.48492353  0.47954628  0.95422734     0.12500
H1518       H  0.50422881  0.50577611  0.93943001     0.12200
H1519       H  0.52800747  0.53019549  0.95070896     0.12800
H1520       H  0.53403523  0.51121493  0.03549793     0.14700
C1521       C  0.64847105  0.61750189  0.54659447    -0.05300
C1522       C  0.64545985  0.61469908  0.57898224    -0.05200
C1523       C  0.65725487  0.61996943  0.60106943    -0.23400
C1524       C  0.67236628  0.62814761  0.59130943     0.18800
C1525       C  0.67560620  0.63122558  0.55895309     0.16000
C1526       C  0.66368704  0.62595023  0.53684984    -0.18400
C1527       C  0.69072338  0.63935257  0.54917951    -0.20200
C1528       C  0.70247553  0.64407005  0.57113944    -0.12800
C1529       C  0.69940379  0.64084470  0.60338227     0.03900
C1530       C  0.68425337  0.63305372  0.61332024    -0.24900
H1531       H  0.63395882  0.60841779  0.58748332     0.08900
H1532       H  0.65453624  0.61753239  0.62578281     0.12600
H1533       H  0.66631829  0.62821422  0.51209753     0.12500
H1534       H  0.69345600  0.64190706  0.52450316     0.12200
H1535       H  0.71400081  0.65022930  0.56273474     0.12800
H1536       H  0.68162533  0.63038455  0.63798543     0.14700
C1537       C  0.59457264  0.59909262  0.18363083    -0.05300
C1538       C  0.58064853  0.58880980  0.19800892    -0.05200
C1539       C  0.57932753  0.58861842  0.23062745    -0.23400
C1540       C  0.59199850  0.59854807  0.24958094     0.18800
C1541       C  0.60607513  0.60913537  0.23555148     0.16000
C1542       C  0.60723989  0.60953269  0.20242677    -0.18400
C1543       C  0.61874060  0.61877208  0.25501429    -0.20200
C1544       C  0.61746225  0.61775515  0.28795023    -0.12800
C1545       C  0.60347017  0.60720784  0.30197569     0.03900
C1546       C  0.59078548  0.59773179  0.28240983    -0.24900
H1547       H  0.57073055  0.58078813  0.18390635     0.08900
H1548       H  0.56845687  0.58047191  0.24105242     0.12600
H1549       H  0.61803370  0.61741115  0.19140984     0.12500
H1550       H  0.62965348  0.62694475  0.24479561     0.12200
H1551       H  0.62742287  0.62524634  0.30238406     0.12800
H1552       H  0.57994676  0.58933198  0.29250655     0.14700
C1553       C  0.31087017  0.36950548  0.39245844    -0.05300
C1554       C  0.30754708  0.36798508  0.42479555    -0.05200
C1555       C  0.31913056  0.37485316  0.44749878    -0.23400
C1556       C  0.33432499  0.38347226  0.43839108     0.18800
C1557       C  0.33790231  0.38515243  0.40601905     0.16000
C1558       C  0.32615994  0.37805742  0.38322703    -0.18400
C1559       C  0.35316011  0.39403556  0.39708247    -0.20200
C1560       C  0.36471570  0.40115584  0.42000903    -0.12800
C1561       C  0.36125024  0.39940920  0.45229680     0.03900
C1562       C  0.34596799  0.39050149  0.46122275    -0.24900
H1563       H  0.29593801  0.36138347  0.43270951     0.08900
H1564       H  0.31618914  0.37346273  0.47221828     0.12600
H1565       H  0.32893937  0.37949724  0.35843357     0.12500
H1566       H  0.35615545  0.39551375  0.37239623     0.12200
H1567       H  0.37638045  0.40790005  0.41241923     0.12800
H1568       H  0.34306388  0.38923256  0.48594144     0.14700
C1569       C  0.39950559  0.41854776  0.70437350    -0.05300
C1570       C  0.40467061  0.43118447  0.72499202    -0.05200
C1571       C  0.40614451  0.42977990  0.75720332    -0.23400
C1572       C  0.40268056  0.41573364  0.76942624     0.18800
C1573       C  0.39676833  0.40267920  0.74931489     0.16000
C1574       C  0.39498988  0.40410513  0.71678006    -0.18400
C1575       C  0.39344948  0.38868747  0.76197437    -0.20200
C1576       C  0.39659672  0.38786741  0.79383020    -0.12800
C1577       C  0.40309988  0.40101380  0.81349600     0.03900
C1578       C  0.40566945  0.41477793  0.80123024    -0.24900
H1579       H  0.40803557  0.44236179  0.71598486     0.08900
H1580       H  0.41056635  0.43985355  0.77236288     0.12600
H1581       H  0.39108295  0.39433115  0.70099069     0.12500
H1582       H  0.38886257  0.37852119  0.74705634     0.12200
H1583       H  0.39446340  0.37710647  0.80275401     0.12800
H1584       H  0.41036216  0.42492764  0.81625002     0.14700
C1585       C  0.47755706  0.49308846  0.52908661    -0.05300
C1586       C  0.48877016  0.49845444  0.55291627    -0.05200
C1587       C  0.50376087  0.51041882  0.54712584    -0.23400
C1588       C  0.50783643  0.51731552  0.51743127     0.18800
C1589       C  0.49669151  0.51192923  0.49331778     0.16000
C1590       C  0.48169820  0.49989496  0.49924585    -0.18400
C1591       C  0.50066773  0.51875255  0.46364715    -0.20200
C1592       C  0.51548335  0.53096425  0.45795181    -0.12800
C1593       C  0.52671934  0.53667884  0.48179767     0.03900
C1594       C  0.52278693  0.52961060  0.51152433    -0.24900
H1595       H  0.48604158  0.49337046  0.57606884     0.08900
H1596       H  0.51213876  0.51432277  0.56592326     0.12600
H1597       H  0.47324365  0.49602565  0.48064259     0.12500
H1598       H  0.49227764  0.51471909  0.44483620     0.12200
H1599       H  0.51799847  0.53590735  0.43470858     0.12800
H1600       H  0.53121621  0.53375426  0.53023152     0.14700
C1601       C  0.36154098  0.95581391  0.96674859    -0.05300
C1602       C  0.34668952  0.94924270  0.97771267    -0.05200
C1603       C  0.33440878  0.94300159  0.95669496    -0.23400
C1604       C  0.33668360  0.94320550  0.92417399     0.18800
C1605       C  0.35152076  0.94982455  0.91269617     0.16000
C1606       C  0.36384539  0.95601903  0.93401962    -0.18400
C1607       C  0.35375901  0.95015284  0.88006959    -0.20200
C1608       C  0.34141704  0.94390652  0.85909151    -0.12800
C1609       C  0.32658821  0.93709082  0.87031616     0.03900
C1610       C  0.32433897  0.93684727  0.90299557    -0.24900
H1611       H  0.34444419  0.94873665  0.00266810     0.08900
H1612       H  0.32311388  0.93797666  0.96591779     0.12600
H1613       H  0.37518761  0.96113349  0.92504454     0.12500
H1614       H  0.36504003  0.95518476  0.87077245     0.12200
H1615       H  0.34348500  0.94415447  0.83407388     0.12800
H1616       H  0.31300449  0.93180902  0.91200057     0.14700
C1617       C  0.68366168  0.06699615  0.13172826    -0.05300
C1618       C  0.66863283  0.05709816  0.14183121    -0.05200
C1619       C  0.65642026  0.05169317  0.12073843    -0.23400
C1620       C  0.65893591  0.05595055  0.08895267     0.18800
C1621       C  0.67395017  0.06575788  0.07834390     0.16000
C1622       C  0.68617797  0.07128346  0.09976050    -0.18400
C1623       C  0.67648061  0.06974942  0.04638984    -0.20200
C1624       C  0.66427717  0.06395145  0.02510908    -0.12800
C1625       C  0.64927849  0.05425712  0.03539458     0.03900
C1626       C  0.64670768  0.05042559  0.06754210    -0.24900
H1627       H  0.66623246  0.05360594  0.16617892     0.08900
H1628       H  0.64498828  0.04413077  0.12930520     0.12600
H1629       H  0.69763102  0.07873176  0.09129887     0.12500
H1630       H  0.68791165  0.07725083  0.03778285     0.12200
H1631       H  0.66657729  0.06715577  0.00056610     0.12800
H1632       H  0.63522007  0.04281536  0.07577240     0.14700
C1633       C  0.48178772  0.00126544  0.03057483    -0.05300
C1634       C  0.49325852  0.00732943  0.05395093    -0.05200
C1635       C  0.50744797  0.00990574  0.04756116    -0.23400
C1636       C  0.51049072  0.00647437  0.01764430     0.18800
C1637       C  0.49905032  0.00030531  0.99404535     0.16000
C1638       C  0.48482132  0.99772427  0.00062736    -0.18400
C1639       C  0.50203327  0.99685738  0.96413551    -0.20200
C1640       C  0.51617379  0.99940375  0.95765669    -0.12800
C1641       C  0.52769072  0.00546260  0.98091531     0.03900
C1642       C  0.52474040  0.00905723  0.01094571    -0.24900
H1643       H  0.49131337  0.01005163  0.07734892     0.08900
H1644       H  0.51604153  0.01459054  0.06603608     0.12600
H1645       H  0.47622360  0.99313592  0.98220424     0.12500
H1646       H  0.49342080  0.99218179  0.94569687     0.12200
H1647       H  0.51804708  0.99668655  0.93419427     0.12800
H1648       H  0.53340778  0.01367357  0.02924035     0.14700
C1649       C  0.41904615  0.05981031  0.56113138    -0.05300
C1650       C  0.42009735  0.05832841  0.59387725    -0.05200
C1651       C  0.41363181  0.06343842  0.61524249    -0.23400
C1652       C  0.40597148  0.07015136  0.60435944     0.18800
C1653       C  0.40495167  0.07179402  0.57160149     0.16000
C1654       C  0.41148578  0.06669690  0.55035988    -0.18400
C1655       C  0.39735136  0.07847676  0.56047695    -0.20200
C1656       C  0.39080751  0.08352150  0.58151093    -0.12800
C1657       C  0.39167800  0.08202674  0.61426747     0.03900
C1658       C  0.39932064  0.07525586  0.62551804    -0.24900
H1659       H  0.42578225  0.05308849  0.60311184     0.08900
H1660       H  0.41456990  0.06206997  0.64029442     0.12600
H1661       H  0.41060251  0.06814485  0.52537356     0.12500
H1662       H  0.39642092  0.07977769  0.53538771     0.12200
H1663       H  0.38493560  0.08848481  0.57186902     0.12800
H1664       H  0.40021615  0.07403276  0.65062942     0.14700
C1665       C  0.41672417  0.01813567  0.31999989    -0.05300
C1666       C  0.42558789  0.03153955  0.30229718    -0.05200
C1667       C  0.42565895  0.03065439  0.26939787    -0.23400
C1668       C  0.41660673  0.01639213  0.25374927     0.18800
C1669       C  0.40697773  0.00297116  0.27137039     0.16000
C1670       C  0.40727577  0.00390561  0.30441440    -0.18400
C1671       C  0.39751483  0.98880517  0.25564236    -0.20200
C1672       C  0.39793982  0.98784194  0.22281711    -0.12800
C1673       C  0.40808382  0.00094988  0.20536350     0.03900
C1674       C  0.41726244  0.01523877  0.22089490    -0.24900
H1675       H  0.43300555  0.04257801  0.31399141     0.08900
H1676       H  0.43300579  0.04107316  0.25623488     0.12600
H1677       H  0.40035300  0.99354543  0.31808145     0.12500
H1678       H  0.38996799  0.97843087  0.26876280     0.12200
H1679       H  0.39081981  0.97673344  0.21118132     0.12800
H1680       H  0.42500390  0.02540996  0.20739109     0.14700
C1681       C  0.58024561  0.93437458  0.45294898    -0.05300
C1682       C  0.58590075  0.92594307  0.46552155    -0.05200
C1683       C  0.59193656  0.91974914  0.44602541    -0.23400
C1684       C  0.59250426  0.92180085  0.41334346     0.18800
C1685       C  0.58683915  0.93016083  0.40018319     0.16000
C1686       C  0.58069889  0.93635031  0.41998723    -0.18400
C1687       C  0.58749805  0.93223181  0.36744295    -0.20200
C1688       C  0.59369867  0.92612027  0.34803839    -0.12800
C1689       C  0.59938719  0.91774236  0.36081391     0.03900
C1690       C  0.59868453  0.91564607  0.39370141    -0.24900
H1691       H  0.58561555  0.92398168  0.49058567     0.08900
H1692       H  0.59618526  0.91334380  0.45658734     0.12600
H1693       H  0.57649368  0.94284798  0.40973424     0.12500
H1694       H  0.58322098  0.93859331  0.35679616     0.12200
H1695       H  0.59391225  0.92792418  0.32291545     0.12800
H1696       H  0.60305468  0.90935143  0.40420193     0.14700
C1697       C  0.52151698  0.99518839  0.51253470    -0.05300
C1698       C  0.52475781  0.00901327  0.52665141    -0.05200
C1699       C  0.51457688  0.01356696  0.52419583    -0.23400
C1700       C  0.50084885  0.00436439  0.50769116     0.18800
C1701       C  0.49754025  0.99059968  0.49274733     0.16000
C1702       C  0.50793113  0.98613400  0.49508158    -0.18400
C1703       C  0.48379903  0.98146216  0.47612521    -0.20200
C1704       C  0.47345596  0.98587977  0.47444601    -0.12800
C1705       C  0.47658057  0.99948792  0.48946964     0.03900
C1706       C  0.49036336  0.00868186  0.50606412    -0.24900
H1707       H  0.53521653  0.01637826  0.53975199     0.08900
H1708       H  0.51738429  0.02423091  0.53554316     0.12600
H1709       H  0.50523657  0.97543600  0.48411404     0.12500
H1710       H  0.48101281  0.97086087  0.46452047     0.12200
H1711       H  0.46290849  0.97851419  0.46161678     0.12800
H1712       H  0.49304173  0.01929967  0.51741109     0.14700
C1713       C  0.59767382  0.00233125  0.80091489    -0.05300
C1714       C  0.60787517  0.01445013  0.78131183    -0.05200
C1715       C  0.60737721  0.01219574  0.74863615    -0.23400
C1716       C  0.59685787  0.99769308  0.73512394     0.18800
C1717       C  0.58724032  0.98516914  0.75488376     0.16000
C1718       C  0.58756176  0.98762333  0.78759812    -0.18400
C1719       C  0.57713423  0.97052253  0.74145560    -0.20200
C1720       C  0.57601129  0.96847364  0.70867531    -0.12800
C1721       C  0.58473301  0.98108346  0.68887181     0.03900
C1722       C  0.59539368  0.99561137  0.70220238    -0.24900
H1723       H  0.61576596  0.02585484  0.79111881     0.08900
H1724       H  0.61497021  0.02187635  0.73388657     0.12600
H1725       H  0.57980452  0.97816499  0.80266773     0.12500
H1726       H  0.56981758  0.96075209  0.75625291     0.12200
H1727       H  0.56773477  0.95720595  0.69874460     0.12800
H1728       H  0.60224659  0.00533737  0.68691860     0.14700
loop_ 
_geom_bond_atom_site_label_1 
_geom_bond_atom_site_label_2 
_geom_bond_distance 
_geom_bond_site_symmetry_2 
_ccdc_geom_bond_type 
N1            N2   1.323       .  A
N1            C5   1.351       .  A
N1           Cu9   2.101       .  S
N2            C3   1.342       .  A
N2           Cu8   2.071       .  S
C3            C4   1.384       .  A
C3            H6   1.082   1_565  S
C4            C5   1.392       .  A
C4         C1697   1.488       .  S
C5            H7   1.081       .  S
Cu8          N11   2.070       .  S
Cu9          N19   2.102       .  S
Cu10         N12   2.082       .  S
Cu10         N18   2.083       .  S
N11          N12   1.321       .  A
N11          C15   1.344       .  A
N12          C13   1.348       .  A
C13          C14   1.386       .  A
C13          H16   1.081       .  S
C14          C15   1.383       .  A
C14        C1721   1.476       .  S
C15          H17   1.082       .  S
N18          N19   1.323       .  A
N18          C22   1.344       .  A
N19          C20   1.352       .  A
C20          C21   1.394       .  A
C20          H23   1.082       .  S
C21          C22   1.389       .  A
C21        C1681   1.497       .  S
C22          H24   1.080       .  S
N25          N26   1.322       .  A
N25          C29   1.350       .  A
N25         Cu33   2.097       .  S
N26          C27   1.343       .  A
N26         Cu32   2.063       .  S
C27          C28   1.383       .  A
C27          H30   1.082   1_545  S
C28          C29   1.393       .  A
C28        C1705   1.487   1_545  S
C29          H31   1.082       .  S
Cu32         N35   2.061       .  S
Cu33         N43   2.098       .  S
Cu34         N36   2.077       .  S
Cu34         N42   2.079       .  S
N35          N36   1.320       .  A
N35          C39   1.342       .  A
N36          C37   1.348       .  A
C37          C38   1.387       .  A
C37          H40   1.081       .  S
C38          C39   1.381       .  A
C38        C1665   1.473       .  S
C39          H41   1.082   1_545  S
N42          N43   1.323       .  A
N42          C46   1.343       .  A
N43          C44   1.350       .  A
C44          C45   1.393       .  A
C44          H47   1.081       .  S
C45          C46   1.388       .  A
C45        C1649   1.495       .  S
C46          H48   1.080       .  S
N49          N50   1.323       .  A
N49          C53   1.349       .  A
N49         Cu57   2.093       .  S
N50          C51   1.345   1_545  A
N50         Cu56   2.071       .  S
C51          C52   1.383   1_565  A
C51          H54   1.082       .  S
C52          C53   1.388       .  A
C52        C1713   1.480       .  S
C53          H55   1.082       .  S
Cu56         N59   2.071       .  S
Cu57         N67   2.094       .  S
Cu58         N60   2.086       .  S
Cu58         N66   2.087       .  S
N59          N60   1.321       .  A
N59          C63   1.343       .  A
N60          C61   1.348       .  A
C61          C62   1.391       .  A
C61          H64   1.081   1_556  S
C62          C63   1.387       .  A
C62        C1641   1.489       .  S
C63          H65   1.081   1_545  S
N66          N67   1.323       .  A
N66          C70   1.347   1_556  A
N67          C68   1.349       .  A
C68          C69   1.389   1_556  A
C68          H71   1.082       .  S
C69          C70   1.387       .  A
C69        C1625   1.488       .  S
C70          H72   1.082       .  S
N73          N74   1.321       .  A
N73          C77   1.346       .  A
N73         Cu81   2.085       .  S
N74          C75   1.344   1_565  A
N74         Cu80   2.070   1_565  S
C75          C76   1.387   1_545  A
C75          H78   1.081       .  S
C76          C77   1.390       .  A
C76        C1633   1.489   1_565  S
C77          H79   1.081   1_554  S
Cu80         N83   2.069       .  S
Cu81         N91   2.084       .  S
Cu82         N84   2.074       .  S
Cu82         N90   2.075       .  S
N83          N84   1.322   1_545  A
N83          C87   1.344       .  A
N84          C85   1.346       .  A
C85          C86   1.384       .  A
C85          H88   1.082       .  S
C86          C87   1.382   1_565  A
C86        C1673   1.473   1_565  S
C87          H89   1.082       .  S
N90          N91   1.322       .  A
N90          C94   1.343       .  A
N91          C92   1.348   1_554  A
C92          C93   1.390       .  A
C92          H95   1.081       .  S
C93          C94   1.387   1_556  A
C93        C1601   1.488       .  S
C94          H96   1.081       .  S
N97          N98   1.321       .  A
N97         C101   1.353       .  A
N97        Cu105   2.092       .  S
N98          C99   1.337       .  A
N98        Cu104   2.053       .  S
C99         C100   1.379       .  A
C99         H102   1.082       .  S
C100        C101   1.392       .  A
C100       C1569   1.479       .  S
C101        H103   1.082       .  S
Cu104       N107   2.054       .  S
Cu105       N115   2.094       .  S
Cu106       N108   2.081       .  S
Cu106       N114   2.084       .  S
N107        N108   1.318       .  A
N107        C111   1.342       .  A
N108        C109   1.346       .  A
C109        C110   1.392       .  A
C109        H112   1.081       .  S
C110        C111   1.385       .  A
C110       C1585   1.486       .  S
C111        H113   1.081       .  S
N114        N115   1.326       .  A
N114        C118   1.347       .  A
N115        C116   1.345       .  A
C116        C117   1.387       .  A
C116        H119   1.082       .  S
C117        C118   1.386       .  A
C117       C1561   1.486       .  S
C118        H120   1.082       .  S
N121        N122   1.319       .  A
N121        C125   1.348       .  A
N121       Cu129   2.084       .  S
N122        C123   1.340       .  A
N122       Cu128   2.055       .  S
C123        C124   1.387       .  A
C123        H126   1.080       .  S
C124        C125   1.393       .  A
C124       C1593   1.489       .  S
C125        H127   1.081       .  S
Cu128       N131   2.055       .  S
Cu129       N139   2.086       .  S
Cu130       N132   2.087       .  S
Cu130       N138   2.088       .  S
N131        N132   1.320       .  A
N131        C135   1.339       .  A
N132        C133   1.349       .  A
C133        C134   1.392       .  A
C133        H136   1.081       .  S
C134        C135   1.385       .  A
C134       C1545   1.486       .  S
C135        H137   1.081       .  S
N138        N139   1.323       .  A
N138        C142   1.347       .  A
N139        C140   1.345       .  A
C140        C141   1.389       .  A
C140        H143   1.081       .  S
C141        C142   1.390       .  A
C141       C1521   1.492       .  S
C142        H144   1.081       .  S
N145        N146   1.322       .  A
N145        C149   1.351       .  A
N145       Cu153   2.089       .  S
N146        C147   1.339       .  A
N146       Cu152   2.058       .  S
C147        C148   1.379       .  A
C147        H150   1.082       .  S
C148        C149   1.388       .  A
C148       C1537   1.475       .  S
C149        H151   1.082       .  S
Cu152       N155   2.058       .  S
Cu153       N163   2.091       .  S
Cu154       N156   2.083   1_556  S
Cu154       N162   2.085       .  S
N155        N156   1.319       .  A
N155        C159   1.343       .  A
N156        C157   1.346   1_554  A
C157        C158   1.392   1_556  A
C157        H160   1.081       .  S
C158        C159   1.386       .  A
C158       C1513   1.487   1_554  S
C159        H161   1.081       .  S
N162        N163   1.324   1_556  A
N162        C166   1.347       .  A
N163        C164   1.347   1_554  A
C164        C165   1.389       .  A
C164        H167   1.082   1_556  S
C165        C166   1.388       .  A
C165       C1489   1.490       .  S
C166        H168   1.082       .  S
N169        N170   1.320       .  A
N169        C173   1.349   1_556  A
N169       Cu177   2.088   1_556  S
N170        C171   1.339       .  A
N170       Cu176   2.053       .  S
C171        C172   1.384       .  A
C171        H174   1.080       .  S
C172        C173   1.394   1_556  A
C172       C1505   1.488       .  S
C173        H175   1.081       .  S
Cu176       N179   2.053       .  S
Cu177       N187   2.090       .  S
Cu178       N180   2.083       .  S
Cu178       N186   2.085       .  S
N179        N180   1.319       .  A
N179        C183   1.340       .  A
N180        C181   1.350       .  A
C181        C182   1.390       .  A
C181        H184   1.081       .  S
C182        C183   1.384       .  A
C182       C1577   1.483       .  S
C183        H185   1.082       .  S
N186        N187   1.325   1_556  A
N186        C190   1.345       .  A
N187        C188   1.347       .  A
C188        C189   1.388       .  A
C188        H191   1.082       .  S
C189        C190   1.386   1_554  A
C189       C1473   1.487       .  S
C190        H192   1.082       .  S
N193        N194   1.320       .  A
N193        C197   1.350       .  A
N193       Cu201   2.093       .  S
N194        C195   1.341       .  A
N194       Cu200   2.065       .  S
C195        C196   1.387       .  A
C195        H198   1.080       .  S
C196        C197   1.395       .  A
C196       C1449   1.493       .  S
C197        H199   1.081       .  S
Cu200       N203   2.066       .  S
Cu201       N211   2.095       .  S
Cu202       N204   2.101       .  S
Cu202       N210   2.103       .  S
N203        N204   1.321       .  A
N203        C207   1.342       .  A
N204        C205   1.352       .  A
C205        C206   1.394   1_554  A
C205        H208   1.082       .  S
C206        C207   1.386   1_556  A
C206       C1457   1.492       .  S
C207        H209   1.081       .  S
N210        N211   1.325       .  A
N210        C214   1.350       .  A
N211        C212   1.348       .  A
C212        C213   1.389       .  A
C212        H215   1.081       .  S
C213        C214   1.389       .  A
C213       C1433   1.493       .  S
C214        H216   1.081       .  S
N217        N218   1.320       .  A
N217        C221   1.346       .  A
N217       Cu225   2.085       .  S
N218        C219   1.344       .  A
N218       Cu224   2.065       .  S
C219        C220   1.387       .  A
C219        H222   1.081       .  S
C220        C221   1.392       .  A
C220       C1441   1.489       .  S
C221        H223   1.082       .  S
Cu224       N227   2.065       .  S
Cu225       N235   2.085       .  S
Cu226       N228   2.086       .  S
Cu226       N234   2.087       .  S
N227        N228   1.320       .  A
N227        C231   1.339       .  A
N228        C229   1.352       .  A
C229        C230   1.392       .  A
C229        H232   1.082       .  S
C230        C231   1.385       .  A
C230       C1409   1.487       .  S
C231        H233   1.081       .  S
N234        N235   1.324       .  A
N234        C238   1.344       .  A
N235        C236   1.347       .  A
C236        C237   1.388       .  A
C236        H239   1.081       .  S
C237        C238   1.388       .  A
C237       C1393   1.489       .  S
C238        H240   1.081       .  S
N241        N242   1.322       .  A
N241        C245   1.353       .  A
N241       Cu249   2.094       .  S
N242        C243   1.342       .  A
N242       Cu248   2.074       .  S
C243        C244   1.384       .  A
C243        H246   1.082       .  S
C244        C245   1.390       .  A
C244       C1465   1.485       .  S
C245        H247   1.082       .  S
Cu248       N251   2.074       .  S
Cu249       N259   2.094       .  S
Cu250       N252   2.082       .  S
Cu250       N258   2.083       .  S
N251        N252   1.320       .  A
N251        C255   1.344       .  A
N252        C253   1.347       .  A
C253        C254   1.392       .  A
C253        H256   1.081       .  S
C254        C255   1.389       .  A
C254       C1385   1.492       .  S
C255        H257   1.080       .  S
N258        N259   1.324       .  A
N258        C262   1.345       .  A
N259        C260   1.348       .  A
C260        C261   1.390       .  A
C260        H263   1.081       .  S
C261        C262   1.387       .  A
C261       C1529   1.490       .  S
C262        H264   1.082       .  S
N265        N266   1.323       .  A
N265        C269   1.353       .  A
N265       Cu273   2.092       .  S
N266        C267   1.338       .  A
N266       Cu272   2.065       .  S
C267        C268   1.380       .  A
C267        H270   1.082       .  S
C268        C269   1.389       .  A
C268       C1417   1.478       .  S
C269        H271   1.082       .  S
Cu272       N275   2.065       .  S
Cu273       N283   2.093       .  S
Cu274       N276   2.078       .  S
Cu274       N282   2.079       .  S
N275        N276   1.318       .  A
N275        C279   1.344       .  A
N276        C277   1.346       .  A
C277        C278   1.393       .  A
C277        H280   1.081       .  S
C278        C279   1.389       .  A
C278       C1377   1.492       .  S
C279        H281   1.081       .  S
N282        N283   1.325       .  A
N282        C286   1.343       .  A
N283        C284   1.347       .  A
C284        C285   1.389       .  A
C284        H287   1.081       .  S
C285        C286   1.384       .  A
C285       C1361   1.485       .  S
C286        H288   1.082       .  S
N289        N290   1.321       .  A
N289        C293   1.350       .  A
N289       Cu297   2.106       .  S
N290        C291   1.343       .  A
N290       Cu296   2.063       .  S
C291        C292   1.386       .  A
C291        H294   1.081       .  S
C292        C293   1.397       .  A
C292       C1353   1.496       .  S
C293        H295   1.081       .  S
Cu296       N299   2.063       .  S
Cu297       N307   2.108       .  S
Cu298       N300   2.084       .  S
Cu298       N306   2.085       .  S
N299        N300   1.320       .  A
N299        C303   1.340       .  A
N300        C301   1.350       .  A
C301        C302   1.391       .  A
C301        H304   1.082       .  S
C302        C303   1.385       .  A
C302       C1329   1.485       .  S
C303        H305   1.081       .  S
N306        N307   1.325       .  A
N306        C310   1.346       .  A
N307        C308   1.350       .  A
C308        C309   1.392       .  A
C308        H311   1.081       .  S
C309        C310   1.386       .  A
C309       C1425   1.493       .  S
C310        H312   1.081       .  S
N313        N314   1.320       .  A
N313        C317   1.353       .  A
N313       Cu321   2.110       .  S
N314        C315   1.341       .  A
N314       Cu320   2.057       .  S
C315        C316   1.385       .  A
C315        H318   1.081       .  S
C316        C317   1.398       .  A
C316       C1345   1.495       .  S
C317        H319   1.081       .  S
Cu320       N323   2.057       .  S
Cu321       N331   2.112       .  S
Cu322       N324   2.086       .  S
Cu322       N330   2.089       .  S
N323        N324   1.320       .  A
N323        C327   1.340       .  A
N324        C325   1.351       .  A
C325        C326   1.388       .  A
C325        H328   1.081       .  S
C326        C327   1.380       .  A
C326       C1321   1.475       .  S
C327        H329   1.082       .  S
N330        N331   1.325       .  A
N330        C334   1.346       .  A
N331        C332   1.350       .  A
C332        C333   1.394       .  A
C332        H335   1.081       .  S
C333        C334   1.389       .  A
C333       C1689   1.498       .  S
C334        H336   1.081       .  S
N337        N338   1.321       .  A
N337        C341   1.353       .  A
N337       Cu345   2.098       .  S
N338        C339   1.339       .  A
N338       Cu344   2.051       .  S
C339        C340   1.377       .  A
C339        H342   1.082       .  S
C340        C341   1.390       .  A
C340       C1337   1.474       .  S
C341        H343   1.081       .  S
Cu344       N347   2.051       .  S
Cu345       N355   2.101       .  S
Cu346       N348   2.088       .  S
Cu346       N354   2.091       .  S
N347        N348   1.319       .  A
N347        C351   1.339       .  A
N348        C349   1.349       .  A
C349        C350   1.393       .  A
C349        H352   1.081       .  S
C350        C351   1.385       .  A
C350       C1297   1.487       .  S
C351        H353   1.081       .  S
N354        N355   1.325       .  A
N354        C358   1.348       .  A
N355        C356   1.347       .  A
C356        C357   1.391       .  A
C356        H359   1.081       .  S
C357        C358   1.390       .  A
C357       C1497   1.496       .  S
C358        H360   1.082       .  S
N361        N362   1.322       .  A
N361        C365   1.352       .  A
N361       Cu369   2.099       .  S
N362        C363   1.338       .  A
N362       Cu368   2.055       .  S
C363        C364   1.381       .  A
C363        H366   1.082       .  S
C364        C365   1.392       .  A
C364       C1313   1.484   1_556  S
C365        H367   1.082       .  S
Cu368       N371   2.054       .  S
Cu369       N379   2.100       .  S
Cu370       N372   2.088       .  S
Cu370       N378   2.090       .  S
N371        N372   1.319       .  A
N371        C375   1.344       .  A
N372        C373   1.345       .  A
C373        C374   1.393       .  A
C373        H376   1.081       .  S
C374        C375   1.387       .  A
C374       C1305   1.490       .  S
C375        H377   1.081       .  S
N378        N379   1.324       .  A
N378        C382   1.347       .  A
N379        C380   1.349       .  A
C380        C381   1.391       .  A
C380        H383   1.081       .  S
C381        C382   1.388       .  A
C381       C1289   1.494       .  S
C382        H384   1.082       .  S
N385        N386   1.322       .  A
N385        C389   1.351       .  A
N385       Cu393   2.083       .  S
N386        C387   1.339       .  A
N386       Cu392   2.061       .  S
C387        C388   1.380       .  A
C387        H390   1.082       .  S
C388        C389   1.387       .  A
C388       C1265   1.475   1_556  S
C389        H391   1.081       .  S
Cu392       N395   2.059       .  S
Cu393       N403   2.084       .  S
Cu394       N396   2.072       .  S
Cu394       N402   2.073       .  S
N395        N396   1.318       .  A
N395        C399   1.342       .  A
N396        C397   1.345       .  A
C397        C398   1.391       .  A
C397        H400   1.081       .  S
C398        C399   1.387       .  A
C398       C1249   1.486       .  S
C399        H401   1.080       .  S
N402        N403   1.323       .  A
N402        C406   1.343       .  A
N403        C404   1.346       .  A
C404        C405   1.389       .  A
C404        H407   1.081       .  S
C405        C406   1.386       .  A
C405       C1369   1.487       .  S
C406        H408   1.081       .  S
N409        N410   1.321       .  A
N409        C413   1.351       .  A
N409       Cu417   2.082       .  S
N410        C411   1.337       .  A
N410       Cu416   2.051       .  S
C411        C412   1.379       .  A
C411        H414   1.082       .  S
C412        C413   1.388       .  A
C412       C1241   1.473       .  S
C413        H415   1.082       .  S
Cu416       N419   2.050       .  S
Cu417       N427   2.084       .  S
Cu418       N420   2.078       .  S
Cu418       N426   2.080       .  S
N419        N420   1.318       .  A
N419        C423   1.340       .  A
N420        C421   1.346       .  A
C421        C422   1.392       .  A
C421        H424   1.081       .  S
C422        C423   1.386       .  A
C422       C1257   1.486       .  S
C423        H425   1.081       .  S
N426        N427   1.324       .  A
N426        C430   1.345       .  A
N427        C428   1.346       .  A
C428        C429   1.386       .  A
C428        H431   1.081       .  S
C429        C430   1.386       .  A
C429       C1609   1.484       .  S
C430        H432   1.082       .  S
N433        N434   1.319       .  A
N433        C437   1.347       .  A
N433       Cu441   2.070       .  S
N434        C435   1.339       .  A
N434       Cu440   2.064       .  S
C435        C436   1.388       .  A
C435        H438   1.080       .  S
C436        C437   1.390       .  A
C436       C1233   1.487       .  S
C437        H439   1.081       .  S
Cu440       N443   2.064       .  S
Cu441       N451   2.072       .  S
Cu442       N444   2.095       .  S
Cu442       N450   2.097       .  S
N443        N444   1.320       .  A
N443        C447   1.343       .  A
N444        C445   1.349       .  A
C445        C446   1.394       .  A
C445        H448   1.081       .  S
C446        C447   1.387       .  A
C446       C1225   1.492       .  S
C447        H449   1.081       .  S
N450        N451   1.323       .  A
N450        C454   1.348       .  A
N451        C452   1.344       .  A
C452        C453   1.386       .  A
C452        H455   1.081       .  S
C453        C454   1.391       .  A
C453       C1201   1.489       .  S
C454        H456   1.081       .  S
N457        N458   1.322       .  A
N457        C461   1.352       .  A
N457       Cu465   2.089       .  S
N458        C459   1.338       .  A
N458       Cu464   2.071       .  S
C459        C460   1.386       .  A
C459        H462   1.081       .  S
C460        C461   1.392       .  A
C460       C1273   1.489       .  S
C461        H463   1.081       .  S
Cu464       N467   2.071       .  S
Cu465       N475   2.091       .  S
Cu466       N468   2.080       .  S
Cu466       N474   2.081       .  S
N467        N468   1.319       .  A
N467        C471   1.345       .  A
N468        C469   1.347       .  A
C469        C470   1.391       .  A
C469        H472   1.081       .  S
C470        C471   1.389       .  A
C470       C1217   1.490       .  S
C471        H473   1.082       .  S
N474        N475   1.323       .  A
N474        C478   1.344       .  A
N475        C476   1.348       .  A
C476        C477   1.391       .  A
C476        H479   1.081       .  S
C477        C478   1.388       .  A
C477       C1185   1.493       .  S
C478        H480   1.081       .  S
N481        N482   1.322       .  A
N481        C485   1.349       .  A
N481       Cu489   2.078       .  S
N482        C483   1.340       .  A
N482       Cu488   2.062       .  S
C483        C484   1.381       .  A
C483        H486   1.082       .  S
C484        C485   1.386       .  A
C484       C1161   1.474       .  S
C485        H487   1.081       .  S
Cu488       N491   2.062       .  S
Cu489       N499   2.080       .  S
Cu490       N492   2.082       .  S
Cu490       N498   2.083       .  S
N491        N492   1.320       .  A
N491        C495   1.343       .  A
N492        C493   1.348       .  A
C493        C494   1.391       .  A
C493        H496   1.081       .  S
C494        C495   1.385       .  A
C494       C1169   1.486       .  S
C495        H497   1.082       .  S
N498        N499   1.323       .  A
N498        C502   1.345       .  A
N499        C500   1.345       .  A
C500        C501   1.388       .  A
C500        H503   1.081       .  S
C501        C502   1.387       .  A
C501       C1137   1.487       .  S
C502        H504   1.082       .  S
N505        N506   1.321       .  A
N505        C509   1.353       .  A
N505       Cu513   2.088       .  S
N506        C507   1.340       .  A
N506       Cu512   2.063       .  S
C507        C508   1.381       .  A
C507        H510   1.082       .  S
C508        C509   1.390       .  A
C508       C1121   1.480       .  S
C509        H511   1.081       .  S
Cu512       N515   2.063       .  S
Cu513       N523   2.090       .  S
Cu514       N516   2.087       .  S
Cu514       N522   2.088       .  S
N515        N516   1.320       .  A
N515        C519   1.342       .  A
N516        C517   1.349       .  A
C517        C518   1.392       .  A
C517        H520   1.082       .  S
C518        C519   1.385       .  A
C518       C1177   1.488       .  S
C519        H521   1.081       .  S
N522        N523   1.326       .  A
N522        C526   1.346       .  A
N523        C524   1.347       .  A
C524        C525   1.386       .  A
C524        H527   1.082       .  S
C525        C526   1.384       .  A
C525       C1193   1.482       .  S
C526        H528   1.082       .  S
N529        N530   1.319   1_655  A
N529        C533   1.348       .  A
N529       Cu537   2.086       .  S
N530        C531   1.345       .  A
N530       Cu536   2.071       .  S
C531        C532   1.389       .  A
C531        H534   1.081       .  S
C532        C533   1.394   1_455  A
C532       C1105   1.495       .  S
C533        H535   1.081   1_556  S
Cu536       N539   2.072       .  S
Cu537       N547   2.088       .  S
Cu538       N540   2.085       .  S
Cu538       N546   2.086       .  S
N539        N540   1.321   1_455  A
N539        C543   1.340       .  A
N540        C541   1.351   1_655  A
C541        C542   1.392       .  A
C541        H544   1.081   1_455  S
C542        C543   1.386       .  A
C542       C1129   1.489       .  S
C543        H545   1.081       .  S
N546        N547   1.324       .  A
N546        C550   1.348       .  A
N547        C548   1.344   1_556  A
C548        C549   1.388       .  A
C548        H551   1.081       .  S
C549        C550   1.388   1_554  A
C549       C1401   1.488       .  S
C550        H552   1.081       .  S
N553        N554   1.321   1_556  A
N553        C557   1.350       .  A
N553       Cu561   2.099       .  S
N554        C555   1.343       .  A
N554       Cu560   2.064       .  S
C555        C556   1.386   1_554  A
C555        H558   1.081       .  S
C556        C557   1.394       .  A
C556       C1113   1.492       .  S
C557        H559   1.081       .  S
Cu560       N563   2.063       .  S
Cu561       N571   2.100       .  S
Cu562       N564   2.068       .  S
Cu562       N570   2.070       .  S
N563        N564   1.320       .  A
N563        C567   1.340       .  A
N564        C565   1.348       .  A
C565        C566   1.387       .  A
C565        H568   1.082       .  S
C566        C567   1.384       .  A
C566       C1153   1.478       .  S
C567        H569   1.082   1_455  S
N570        N571   1.324   1_554  A
N570        C574   1.342   1_554  A
N571        C572   1.350       .  A
C572        C573   1.390       .  A
C572        H575   1.082       .  S
C573        C574   1.384       .  A
C573       C1089   1.487       .  S
C574        H576   1.081   1_556  S
N577        N578   1.320       .  A
N577        C581   1.350       .  A
N577       Cu585   2.099       .  S
N578        C579   1.342       .  A
N578       Cu584   2.061       .  S
C579        C580   1.386       .  A
C579        H582   1.081       .  S
C580        C581   1.396       .  A
C580       C1073   1.495       .  S
C581        H583   1.081       .  S
Cu584       N587   2.061       .  S
Cu585       N595   2.101       .  S
Cu586       N588   2.081       .  S
Cu586       N594   2.083       .  S
N587        N588   1.319       .  A
N587        C591   1.338       .  A
N588        C589   1.352       .  A
C589        C590   1.392       .  A
C589        H592   1.081       .  S
C590        C591   1.386       .  A
C590       C1057   1.487   1_556  S
C591        H593   1.081       .  S
N594        N595   1.325       .  A
N594        C598   1.345       .  A
N595        C596   1.349       .  A
C596        C597   1.391       .  A
C596        H599   1.082       .  S
C597        C598   1.386       .  A
C597       C1041   1.491       .  S
C598        H600   1.081       .  S
N601        N602   1.320       .  A
N601        C605   1.350       .  A
N601       Cu609   2.095       .  S
N602        C603   1.343       .  A
N602       Cu608   2.069       .  S
C603        C604   1.388       .  A
C603        H606   1.080       .  S
C604        C605   1.395       .  A
C604       C1081   1.495       .  S
C605        H607   1.081       .  S
Cu608       N611   2.070       .  S
Cu609       N619   2.096       .  S
Cu610       N612   2.080       .  S
Cu610       N618   2.081       .  S
N611        N612   1.320       .  A
N611        C615   1.342       .  A
N612        C613   1.348       .  A
C613        C614   1.391       .  A
C613        H616   1.081       .  S
C614        C615   1.387       .  A
C614       C1025   1.489       .  S
C615        H617   1.081       .  S
N618        N619   1.325       .  A
N618        C622   1.346       .  A
N619        C620   1.347       .  A
C620        C621   1.388       .  A
C620        H623   1.082       .  S
C621        C622   1.385       .  A
C621       C1097   1.486       .  S
C622        H624   1.082       .  S
N625        N626   1.322       .  A
N625        C629   1.351       .  A
N625       Cu633   2.089       .  S
N626        C627   1.340       .  A
N626       Cu632   2.066       .  S
C627        C628   1.382       .  A
C627        H630   1.082       .  S
C628        C629   1.389       .  A
C628       C1065   1.480       .  S
C629        H631   1.082       .  S
Cu632       N635   2.066       .  S
Cu633       N643   2.091       .  S
Cu634       N636   2.081       .  S
Cu634       N642   2.082       .  S
N635        N636   1.319       .  A
N635        C639   1.343       .  A
N636        C637   1.347       .  A
C637        C638   1.393       .  A
C637        H640   1.081       .  S
C638        C639   1.388       .  A
C638       C1009   1.492       .  S
C639        H641   1.081       .  S
N642        N643   1.324       .  A
N642        C646   1.344       .  A
N643        C644   1.348       .  A
C644        C645   1.388       .  A
C644        H647   1.082       .  S
C645        C646   1.386       .  A
C645       C1553   1.487       .  S
C646        H648   1.081       .  S
N649        N650   1.321       .  A
N649        C653   1.354       .  A
N649       Cu657   2.106       .  S
N650        C651   1.339       .  A
N650       Cu656   2.055       .  S
C651        C652   1.380       .  A
C651        H654   1.082       .  S
C652        C653   1.393       .  A
C652       C1033   1.484       .  S
C653        H655   1.081       .  S
Cu656       N659   2.055       .  S
Cu657       N667   2.108       .  S
Cu658       N660   2.092       .  S
Cu658       N666   2.094       .  S
N659        N660   1.319       .  A
N659        C663   1.341       .  A
N660        C661   1.349       .  A
C661        C662   1.395       .  A
C661        H664   1.081       .  S
C662        C663   1.386       .  A
C662       C1017   1.491       .  S
C663        H665   1.081       .  S
N666        N667   1.325       .  A
N666        C670   1.347       .  A
N667        C668   1.350       .  A
C668        C669   1.392       .  A
C668        H671   1.081       .  S
C669        C670   1.388       .  A
C669        C993   1.496       .  S
C670        H672   1.081       .  S
N673        N674   1.318       .  A
N673        C677   1.352       .  A
N673       Cu681   2.103       .  S
N674        C675   1.340       .  A
N674       Cu680   2.050       .  S
C675        C676   1.385       .  A
C675        H678   1.080       .  S
C676        C677   1.398       .  A
C676        C961   1.495       .  S
C677        H679   1.081       .  S
Cu680       N683   2.050       .  S
Cu681       N691   2.105       .  S
Cu682       N684   2.084       .  S
Cu682       N690   2.087       .  S
N683        N684   1.320       .  A
N683        C687   1.338       .  A
N684        C685   1.351       .  A
C685        C686   1.389       .  A
C685        H688   1.082       .  S
C686        C687   1.380       .  A
C686        C977   1.476       .  S
C687        H689   1.082       .  S
N690        N691   1.326       .  A
N690        C694   1.348       .  A
N691        C692   1.346       .  A
C692        C693   1.391       .  A
C692        H695   1.081       .  S
C693        C694   1.387       .  A
C693       C1657   1.494       .  S
C694        H696   1.081       .  S
N697        N698   1.321       .  A
N697        C701   1.352       .  A
N697       Cu705   2.108       .  S
N698        C699   1.342       .  A
N698       Cu704   2.060       .  S
C699        C700   1.385       .  A
C699        H702   1.081       .  S
C700        C701   1.397       .  A
C700        C969   1.494       .  S
C701        H703   1.081       .  S
Cu704       N707   2.059       .  S
Cu705       N715   2.109       .  S
Cu706       N708   2.081       .  S
Cu706       N714   2.083       .  S
N707        N708   1.319       .  A
N707        C711   1.339       .  A
N708        C709   1.351       .  A
C709        C710   1.390       .  A
C709        H712   1.082       .  S
C710        C711   1.384       .  A
C710        C945   1.483       .  S
C711        H713   1.082       .  S
N714        N715   1.325       .  A
N714        C718   1.343       .  A
N715        C716   1.352       .  A
C716        C717   1.392       .  A
C716        H719   1.082       .  S
C717        C718   1.385       .  A
C717       C1049   1.492       .  S
C718        H720   1.081       .  S
N721        N722   1.319       .  A
N721        C725   1.350       .  A
N721       Cu729   2.091       .  S
N722        C723   1.340       .  A
N722       Cu728   2.052       .  S
C723        C724   1.384       .  A
C723        H726   1.081       .  S
C724        C725   1.394       .  A
C724        C937   1.487       .  S
C725        H727   1.081       .  S
Cu728       N731   2.052       .  S
Cu729       N739   2.093       .  S
Cu730       N732   2.080       .  S
Cu730       N738   2.083       .  S
N731        N732   1.318       .  A
N731        C735   1.338       .  A
N732        C733   1.350       .  A
C733        C734   1.392       .  A
C733        H736   1.082       .  S
C734        C735   1.384       .  A
C734        C985   1.485   1_554  S
C735        H737   1.080       .  S
N738        N739   1.326       .  A
N738        C742   1.344       .  A
N739        C740   1.348       .  A
C740        C741   1.387       .  A
C740        H743   1.082       .  S
C741        C742   1.385       .  A
C741       C1209   1.484       .  S
C742        H744   1.082       .  S
N745        N746   1.320       .  A
N745        C749   1.353       .  A
N745       Cu753   2.092       .  S
N746        C747   1.337       .  A
N746       Cu752   2.051       .  S
C747        C748   1.382       .  A
C747        H750   1.081       .  S
C748        C749   1.392       .  A
C748        C953   1.483       .  S
C749        H751   1.081       .  S
Cu752       N755   2.051       .  S
Cu753       N763   2.094       .  S
Cu754       N756   2.091       .  S
Cu754       N762   2.093       .  S
N755        N756   1.319       .  A
N755        C759   1.341       .  A
N756        C757   1.349       .  A
C757        C758   1.393       .  A
C757        H760   1.082       .  S
C758        C759   1.383       .  A
C758        C929   1.486       .  S
C759        H761   1.082       .  S
N762        N763   1.326       .  A
N762        C766   1.347       .  A
N763        C764   1.347       .  A
C764        C765   1.387       .  A
C764        H767   1.082       .  S
C765        C766   1.387       .  A
C765       C1481   1.488       .  S
C766        H768   1.082       .  S
N769        N770   1.321       .  A
N769        C773   1.351       .  A
N769       Cu777   2.089       .  S
N770        C771   1.337       .  A
N770       Cu776   2.060       .  S
C771        C772   1.385       .  A
C771        H774   1.081       .  S
C772        C773   1.392       .  A
C772        C905   1.487       .  S
C773        H775   1.082       .  S
Cu776       N779   2.060       .  S
Cu777       N787   2.091       .  S
Cu778       N780   2.090       .  S
Cu778       N786   2.091       .  S
N779        N780   1.319       .  A
N779        C783   1.343       .  A
N780        C781   1.348       .  A
C781        C782   1.393       .  A
C781        H784   1.081       .  S
C782        C783   1.387       .  A
C782        C921   1.489       .  S
C783        H785   1.081       .  S
N786        N787   1.324       .  A
N786        C790   1.347       .  A
N787        C788   1.348       .  A
C788        C789   1.390       .  A
C788        H791   1.081       .  S
C789        C790   1.389       .  A
C789       C1617   1.494       .  S
C790        H792   1.081       .  S
N793        N794   1.323       .  A
N793        C797   1.352       .  A
N793       Cu801   2.096       .  S
N794        C795   1.340       .  A
N794       Cu800   2.067       .  S
C795        C796   1.383       .  A
C795        H798   1.082       .  S
C796        C797   1.389       .  A
C796        C881   1.483   1_554  S
C797        H799   1.082       .  S
Cu800       N803   2.067       .  S
Cu801       N811   2.098       .  S
Cu802       N804   2.080       .  S
Cu802       N810   2.081       .  S
N803        N804   1.319       .  A
N803        C807   1.344       .  A
N804        C805   1.347       .  A
C805        C806   1.392       .  A
C805        H808   1.081       .  S
C806        C807   1.389       .  A
C806        C913   1.492       .  S
C807        H809   1.081       .  S
N810        N811   1.323       .  A
N810        C814   1.344       .  A
N811        C812   1.351       .  A
C812        C813   1.392       .  A
C812        H815   1.082       .  S
C813        C814   1.387       .  A
C813       C1001   1.492       .  S
C814        H816   1.081       .  S
N817        N818   1.319       .  A
N817        C821   1.346       .  A
N817       Cu825   2.079       .  S
N818        C819   1.341       .  A
N818       Cu824   2.054       .  S
C819        C820   1.386       .  A
C819        H822   1.081       .  S
C820        C821   1.391       .  A
C820        C865   1.486       .  S
C821        H823   1.081       .  S
Cu824       N827   2.054       .  S
Cu825       N835   2.081       .  S
Cu826       N828   2.091       .  S
Cu826       N834   2.092       .  S
N827        N828   1.320       .  A
N827        C831   1.338       .  A
N828        C829   1.352       .  A
C829        C830   1.392       .  A
C829        H832   1.082       .  S
C830        C831   1.383       .  A
C830        C889   1.484       .  S
C831        H833   1.081       .  S
N834        N835   1.324       .  A
N834        C838   1.346       .  A
N835        C836   1.345       .  A
C836        C837   1.387       .  A
C836        H839   1.082       .  S
C837        C838   1.388       .  A
C837       C1145   1.488       .  S
C838        H840   1.081       .  S
N841        N842   1.322       .  A
N841        C845   1.351       .  A
N841       Cu849   2.087       .  S
N842        C843   1.339       .  A
N842       Cu848   2.058       .  S
C843        C844   1.380       .  A
C843        H846   1.082       .  S
C844        C845   1.387       .  A
C844        C897   1.475       .  S
C845        H847   1.081       .  S
Cu848       N851   2.058       .  S
Cu849       N859   2.090       .  S
Cu850       N852   2.087       .  S
Cu850       N858   2.090       .  S
N851        N852   1.319       .  A
N851        C855   1.342       .  A
N852        C853   1.347       .  A
C853        C854   1.393       .  A
C853        H856   1.081       .  S
C854        C855   1.387       .  A
C854        C873   1.490       .  S
C855        H857   1.080       .  S
N858        N859   1.324       .  A
N858        C862   1.345       .  A
N859        C860   1.349       .  A
C860        C861   1.389       .  A
C860        H863   1.081       .  S
C861        C862   1.389       .  A
C861       C1281   1.493       .  S
C862        H864   1.081       .  S
C865        C866   1.406       .  A
C865        C870   1.409       .  A
C866        C867   1.397       .  A
C866        H875   1.081       .  S
C867        C868   1.402       .  A
C867        H876   1.084       .  S
C868        C874   1.403       .  A
C868        C869   1.411       .  A
C869        C871   1.402       .  A
C869        C870   1.403       .  A
C870        H877   1.082       .  S
C871        C872   1.398       .  A
C871        H878   1.084       .  S
C872        C873   1.407       .  A
C872        H879   1.081       .  S
C873        C874   1.410       .  A
C874        H880   1.082       .  S
C881        C882   1.406       .  A
C881        C886   1.410       .  A
C882        C883   1.390       .  A
C882        H891   1.082       .  S
C883        C884   1.398       .  A
C883        H892   1.084       .  S
C884        C890   1.398       .  A
C884        C885   1.413       .  A
C885        C887   1.407       .  A
C885        C886   1.412       .  A
C886        H893   1.084       .  S
C887        C888   1.406       .  A
C887        H894   1.083       .  S
C888        C889   1.406       .  A
C888        H895   1.083       .  S
C889        C890   1.404       .  A
C890        H896   1.083       .  S
C897        C898   1.403       .  A
C897        C902   1.408       .  A
C898        C899   1.390       .  A
C898        H907   1.083       .  S
C899        C900   1.399       .  A
C899        H908   1.084       .  S
C900        C906   1.397       .  A
C900        C901   1.413       .  A
C901        C903   1.406       .  A
C901        C902   1.410       .  A
C902        H909   1.084       .  S
C903        C904   1.404       .  A
C903        H910   1.083       .  S
C904        C905   1.407       .  A
C904        H911   1.082       .  S
C905        C906   1.405       .  A
C906        H912   1.082       .  S
C913        C914   1.408       .  A
C913        C918   1.410       .  A
C914        C915   1.397       .  A
C914        H923   1.081       .  S
C915        C916   1.400       .  A
C915        H924   1.083       .  S
C916        C922   1.406       .  A
C916        C917   1.412       .  A
C917        C919   1.402       .  A
C917        C918   1.407       .  A
C918        H925   1.082       .  S
C919        C920   1.399       .  A
C919        H926   1.083       .  S
C920        C921   1.408       .  A
C920        H927   1.082       .  S
C921        C922   1.407       .  A
C922        H928   1.082       .  S
C929        C930   1.408       .  A
C929        C934   1.405       .  A
C930        C931   1.398       .  A
C930        H939   1.082       .  S
C931        C932   1.401       .  A
C931        H940   1.083       .  S
C932        C938   1.407       .  A
C932        C933   1.414       .  A
C933        C935   1.399       .  A
C933        C934   1.406       .  A
C934        H941   1.083       .  S
C935        C936   1.396       .  A
C935        H942   1.084       .  S
C936        C937   1.408       .  A
C936        H943   1.081       .  S
C937        C938   1.407       .  A
C938        H944   1.083       .  S
C945        C946   1.406       .  A
C945        C950   1.403       .  A
C946        C947   1.406       .  A
C946        H955   1.083       .  S
C947        C948   1.407       .  A
C947        H956   1.084       .  S
C948        C954   1.412       .  A
C948        C949   1.414       .  A
C949        C951   1.396       .  A
C949        C950   1.398       .  A
C950        H957   1.084       .  S
C951        C952   1.389       .  A
C951        H958   1.084       .  S
C952        C953   1.407       .  A
C952        H959   1.082       .  S
C953        C954   1.410       .  A
C954        H960   1.084       .  S
C961        C962   1.406       .  A
C961        C966   1.413       .  A
C962        C963   1.401       .  A
C962        H971   1.082       .  S
C963        C964   1.404       .  A
C963        H972   1.083       .  S
C964        C970   1.407       .  A
C964        C965   1.409       .  A
C965        C967   1.404       .  A
C965        C966   1.406       .  A
C966        H973   1.080       .  S
C967        C968   1.400       .  A
C967        H974   1.083       .  S
C968        C969   1.406       .  A
C968        H975   1.082       .  S
C969        C970   1.413       .  A
C970        H976   1.081       .  S
C977        C978   1.405       .  A
C977        C982   1.407       .  A
C978        C979   1.391       .  A
C978        H987   1.083       .  S
C979        C980   1.399       .  A
C979        H988   1.084       .  S
C980        C986   1.398       .  A
C980        C981   1.413       .  A
C981        C983   1.405       .  A
C981        C982   1.409       .  A
C982        H989   1.084       .  S
C983        C984   1.403       .  A
C983        H990   1.083       .  S
C984        C985   1.406       .  A
C984        H991   1.082       .  S
C985        C986   1.406       .  A
C986        H992   1.081       .  S
C993        C994   1.409       .  A
C993        C998   1.409       .  A
C994        C995   1.401       .  A
C994       H1003   1.082       .  S
C995        C996   1.402       .  A
C995       H1004   1.083       .  S
C996       C1002   1.412   1_455  A
C996        C997   1.414   1_455  A
C997        C999   1.401       .  A
C997        C998   1.410   1_655  A
C998       H1005   1.083       .  S
C999       C1000   1.399       .  A
C999       H1006   1.083       .  S
C1000      C1001   1.408       .  A
C1000      H1007   1.082       .  S
C1001      C1002   1.409       .  A
C1002      H1008   1.083       .  S
C1009      C1010   1.407       .  A
C1009      C1014   1.411       .  A
C1010      C1011   1.399       .  A
C1010      H1019   1.081       .  S
C1011      C1012   1.403       .  A
C1011      H1020   1.084       .  S
C1012      C1018   1.405       .  A
C1012      C1013   1.410       .  A
C1013      C1015   1.403       .  A
C1013      C1014   1.405       .  A
C1014      H1021   1.082       .  S
C1015      C1016   1.399       .  A
C1015      H1022   1.084       .  S
C1016      C1017   1.406       .  A
C1016      H1023   1.081       .  S
C1017      C1018   1.411       .  A
C1018      H1024   1.081       .  S
C1025      C1026   1.408       .  A
C1025      C1030   1.406       .  A
C1026      C1027   1.403       .  A
C1026      H1035   1.082       .  S
C1027      C1028   1.404       .  A
C1027      H1036   1.084       .  S
C1028      C1034   1.412       .  A
C1028      C1029   1.414       .  A
C1029      C1031   1.399       .  A
C1029      C1030   1.402       .  A
C1030      H1037   1.083       .  S
C1031      C1032   1.394       .  A
C1031      H1038   1.084       .  S
C1032      C1033   1.406       .  A
C1032      H1039   1.083       .  S
C1033      C1034   1.408       .  A
C1034      H1040   1.084       .  S
C1041      C1042   1.409       .  A
C1041      C1046   1.407       .  A
C1042      C1043   1.400       .  A
C1042      H1051   1.082       .  S
C1043      C1044   1.402       .  A
C1043      H1052   1.084       .  S
C1044      C1050   1.411       .  A
C1044      C1045   1.414       .  A
C1045      C1047   1.400       .  A
C1045      C1046   1.407       .  A
C1046      H1053   1.083       .  S
C1047      C1048   1.397       .  A
C1047      H1054   1.084       .  S
C1048      C1049   1.408       .  A
C1048      H1055   1.081       .  S
C1049      C1050   1.409       .  A
C1050      H1056   1.084       .  S
C1057      C1058   1.407       .  A
C1057      C1062   1.412       .  A
C1058      C1059   1.390       .  A
C1058      H1067   1.081       .  S
C1059      C1060   1.396       .  A
C1059      H1068   1.084       .  S
C1060      C1066   1.399       .  A
C1060      C1061   1.414       .  A
C1061      C1063   1.407       .  A
C1061      C1062   1.413       .  A
C1062      H1069   1.083       .  S
C1063      C1064   1.406       .  A
C1063      H1070   1.084       .  S
C1064      C1065   1.405       .  A
C1064      H1071   1.083       .  S
C1065      C1066   1.401       .  A
C1066      H1072   1.085       .  S
C1073      C1074   1.407       .  A
C1073      C1078   1.413       .  A
C1074      C1075   1.400       .  A
C1074      H1083   1.081       .  S
C1075      C1076   1.403       .  A
C1075      H1084   1.084       .  S
C1076      C1082   1.406       .  A
C1076      C1077   1.410       .  A
C1077      C1079   1.404       .  A
C1077      C1078   1.407       .  A
C1078      H1085   1.081       .  S
C1079      C1080   1.401       .  A
C1079      H1086   1.084       .  S
C1080      C1081   1.407       .  A
C1080      H1087   1.081       .  S
C1081      C1082   1.412       .  A
C1082      H1088   1.081       .  S
C1089      C1090   1.407       .  A
C1089      C1094   1.409       .  A
C1090      C1091   1.396       .  A
C1090      H1099   1.082       .  S
C1091      C1092   1.400       .  A
C1091      H1100   1.083       .  S
C1092      C1098   1.405       .  A
C1092      C1093   1.413       .  A
C1093      C1095   1.403       .  A
C1093      C1094   1.409       .  A
C1094      H1101   1.082       .  S
C1095      C1096   1.401       .  A
C1095      H1102   1.082       .  S
C1096      C1097   1.407       .  A
C1096      H1103   1.083       .  S
C1097      C1098   1.406       .  A
C1098      H1104   1.083       .  S
C1105      C1106   1.407   1_556  A
C1105      C1110   1.412       .  A
C1106      C1107   1.399       .  A
C1106      H1115   1.081       .  S
C1107      C1108   1.402       .  A
C1107      H1116   1.084       .  S
C1108      C1114   1.407       .  A
C1108      C1109   1.411   1_554  A
C1109      C1111   1.404       .  A
C1109      C1110   1.409       .  A
C1110      H1117   1.082       .  S
C1111      C1112   1.401       .  A
C1111      H1118   1.083       .  S
C1112      C1113   1.406       .  A
C1112      H1119   1.082       .  S
C1113      C1114   1.410   1_556  A
C1114      H1120   1.082       .  S
C1121      C1122   1.404       .  A
C1121      C1126   1.409       .  A
C1122      C1123   1.392       .  A
C1122      H1131   1.083       .  S
C1123      C1124   1.399       .  A
C1123      H1132   1.084       .  S
C1124      C1130   1.400       .  A
C1124      C1125   1.414       .  A
C1125      C1127   1.406       .  A
C1125      C1126   1.412       .  A
C1126      H1133   1.084       .  S
C1127      C1128   1.405       .  A
C1127      H1134   1.084   1_455  S
C1128      C1129   1.408       .  A
C1128      H1135   1.082   1_455  S
C1129      C1130   1.406       .  A
C1130      H1136   1.083       .  S
C1137      C1138   1.407       .  A
C1137      C1142   1.408       .  A
C1138      C1139   1.397       .  A
C1138      H1147   1.081       .  S
C1139      C1140   1.401       .  A
C1139      H1148   1.084       .  S
C1140      C1146   1.405       .  A
C1140      C1141   1.413       .  A
C1141      C1143   1.402       .  A
C1141      C1142   1.406       .  A
C1142      H1149   1.084       .  S
C1143      C1144   1.398       .  A
C1143      H1150   1.084       .  S
C1144      C1145   1.407       .  A
C1144      H1151   1.081       .  S
C1145      C1146   1.408       .  A
C1146      H1152   1.083       .  S
C1153      C1154   1.405       .  A
C1153      C1158   1.403   1_455  A
C1154      C1155   1.401       .  A
C1154      H1163   1.083       .  S
C1155      C1156   1.405   1_455  A
C1155      H1164   1.083       .  S
C1156      C1162   1.407       .  A
C1156      C1157   1.414       .  A
C1157      C1159   1.399       .  A
C1157      C1158   1.397       .  A
C1158      H1165   1.083       .  S
C1159      C1160   1.392       .  A
C1159      H1166   1.084       .  S
C1160      C1161   1.403       .  A
C1160      H1167   1.083       .  S
C1161      C1162   1.406       .  A
C1162      H1168   1.084       .  S
C1169      C1170   1.407       .  A
C1169      C1174   1.407       .  A
C1170      C1171   1.398       .  A
C1170      H1179   1.082       .  S
C1171      C1172   1.401       .  A
C1171      H1180   1.084       .  S
C1172      C1178   1.407       .  A
C1172      C1173   1.414       .  A
C1173      C1175   1.401   1_655  A
C1173      C1174   1.406       .  A
C1174      H1181   1.083       .  S
C1175      C1176   1.397       .  A
C1175      H1182   1.084       .  S
C1176      C1177   1.408       .  A
C1176      H1183   1.082       .  S
C1177      C1178   1.407   1_455  A
C1178      H1184   1.083       .  S
C1185      C1186   1.409       .  A
C1185      C1190   1.410       .  A
C1186      C1187   1.397       .  A
C1186      H1195   1.080       .  S
C1187      C1188   1.400       .  A
C1187      H1196   1.085       .  S
C1188      C1194   1.405       .  A
C1188      C1189   1.413       .  A
C1189      C1191   1.403       .  A
C1189      C1190   1.407       .  A
C1190      H1197   1.083       .  S
C1191      C1192   1.399       .  A
C1191      H1198   1.084       .  S
C1192      C1193   1.405       .  A
C1192      H1199   1.083       .  S
C1193      C1194   1.406       .  A
C1194      H1200   1.085       .  S
C1201      C1202   1.408       .  A
C1201      C1206   1.407       .  A
C1202      C1203   1.400   1_565  A
C1202      H1211   1.082       .  S
C1203      C1204   1.402       .  A
C1203      H1212   1.083       .  S
C1204      C1210   1.408       .  A
C1204      C1205   1.413   1_545  A
C1205      C1207   1.401       .  A
C1205      C1206   1.406       .  A
C1206      H1213   1.081       .  S
C1207      C1208   1.396   1_565  A
C1207      H1214   1.082       .  S
C1208      C1209   1.405       .  A
C1208      H1215   1.083       .  S
C1209      C1210   1.408       .  A
C1210      H1216   1.083       .  S
C1217      C1218   1.408       .  A
C1217      C1222   1.408       .  A
C1218      C1219   1.399       .  A
C1218      H1227   1.082       .  S
C1219      C1220   1.402       .  A
C1219      H1228   1.084       .  S
C1220      C1226   1.408       .  A
C1220      C1221   1.413       .  A
C1221      C1223   1.401       .  A
C1221      C1222   1.407       .  A
C1222      H1229   1.083       .  S
C1223      C1224   1.398       .  A
C1223      H1230   1.084       .  S
C1224      C1225   1.409       .  A
C1224      H1231   1.081       .  S
C1225      C1226   1.409       .  A
C1226      H1232   1.083       .  S
C1233      C1234   1.409       .  A
C1233      C1238   1.404       .  A
C1234      C1235   1.403       .  A
C1234      H1243   1.082       .  S
C1235      C1236   1.404       .  A
C1235      H1244   1.083       .  S
C1236      C1242   1.410       .  A
C1236      C1237   1.413       .  A
C1237      C1239   1.398       .  A
C1237      C1238   1.396       .  A
C1238      H1245   1.081       .  S
C1239      C1240   1.388       .  A
C1239      H1246   1.084       .  S
C1240      C1241   1.403       .  A
C1240      H1247   1.083       .  S
C1241      C1242   1.407       .  A
C1242      H1248   1.084       .  S
C1249      C1250   1.407       .  A
C1249      C1254   1.409       .  A
C1250      C1251   1.397       .  A
C1250      H1259   1.081       .  S
C1251      C1252   1.401       .  A
C1251      H1260   1.084       .  S
C1252      C1258   1.401       .  A
C1252      C1253   1.411       .  A
C1253      C1255   1.402       .  A
C1253      C1254   1.402       .  A
C1254      H1261   1.082       .  S
C1255      C1256   1.397       .  A
C1255      H1262   1.084       .  S
C1256      C1257   1.407       .  A
C1256      H1263   1.081       .  S
C1257      C1258   1.409       .  A
C1258      H1264   1.082       .  S
C1265      C1266   1.402       .  A
C1265      C1270   1.409       .  A
C1266      C1267   1.389       .  A
C1266      H1275   1.083       .  S
C1267      C1268   1.398       .  A
C1267      H1276   1.084       .  S
C1268      C1274   1.397       .  A
C1268      C1269   1.413       .  A
C1269      C1271   1.407       .  A
C1269      C1270   1.412       .  A
C1270      H1277   1.084       .  S
C1271      C1272   1.407       .  A
C1271      H1278   1.084       .  S
C1272      C1273   1.408       .  A
C1272      H1279   1.082       .  S
C1273      C1274   1.404       .  A
C1274      H1280   1.082       .  S
C1281      C1282   1.407       .  A
C1281      C1286   1.411       .  A
C1282      C1283   1.397       .  A
C1282      H1291   1.081       .  S
C1283      C1284   1.401   1_545  A
C1283      H1292   1.084       .  S
C1284      C1290   1.409       .  A
C1284      C1285   1.414       .  A
C1285      C1287   1.403       .  A
C1285      C1286   1.412   1_565  A
C1286      H1293   1.084   1_545  S
C1287      C1288   1.402       .  A
C1287      H1294   1.084       .  S
C1288      C1289   1.409       .  A
C1288      H1295   1.082       .  S
C1289      C1290   1.408       .  A
C1290      H1296   1.084       .  S
C1297      C1298   1.408       .  A
C1297      C1302   1.408       .  A
C1298      C1299   1.394       .  A
C1298      H1307   1.081       .  S
C1299      C1300   1.398       .  A
C1299      H1308   1.084       .  S
C1300      C1306   1.402       .  A
C1300      C1301   1.412       .  A
C1301      C1303   1.402       .  A
C1301      C1302   1.407       .  A
C1302      H1309   1.083       .  S
C1303      C1304   1.400       .  A
C1303      H1310   1.084       .  S
C1304      C1305   1.410       .  A
C1304      H1311   1.081       .  S
C1305      C1306   1.406       .  A
C1306      H1312   1.082       .  S
C1313      C1314   1.405       .  A
C1313      C1318   1.405       .  A
C1314      C1315   1.404       .  A
C1314      H1323   1.083       .  S
C1315      C1316   1.406       .  A
C1315      H1324   1.082       .  S
C1316      C1322   1.411       .  A
C1316      C1317   1.413       .  A
C1317      C1319   1.400       .  A
C1317      C1318   1.399       .  A
C1318      H1325   1.083       .  S
C1319      C1320   1.392       .  A
C1319      H1326   1.083       .  S
C1320      C1321   1.403       .  A
C1320      H1327   1.084       .  S
C1321      C1322   1.408       .  A
C1322      H1328   1.083       .  S
C1329      C1330   1.406       .  A
C1329      C1334   1.406       .  A
C1330      C1331   1.403       .  A
C1330      H1339   1.083       .  S
C1331      C1332   1.405       .  A
C1331      H1340   1.083       .  S
C1332      C1338   1.410       .  A
C1332      C1333   1.414       .  A
C1333      C1335   1.400       .  A
C1333      C1334   1.401       .  A
C1334      H1341   1.083       .  S
C1335      C1336   1.393       .  A
C1335      H1342   1.084       .  S
C1336      C1337   1.403       .  A
C1336      H1343   1.083       .  S
C1337      C1338   1.406       .  A
C1338      H1344   1.084       .  S
C1345      C1346   1.407       .  A
C1345      C1350   1.412       .  A
C1346      C1347   1.402       .  A
C1346      H1355   1.082       .  S
C1347      C1348   1.405       .  A
C1347      H1356   1.084       .  S
C1348      C1354   1.409       .  A
C1348      C1349   1.410       .  A
C1349      C1351   1.403       .  A
C1349      C1350   1.406       .  A
C1350      H1357   1.082       .  S
C1351      C1352   1.400       .  A
C1351      H1358   1.084       .  S
C1352      C1353   1.407       .  A
C1352      H1359   1.081       .  S
C1353      C1354   1.414       .  A
C1354      H1360   1.082       .  S
C1361      C1362   1.407       .  A
C1361      C1366   1.406       .  A
C1362      C1363   1.398       .  A
C1362      H1371   1.082       .  S
C1363      C1364   1.401   1_655  A
C1363      H1372   1.084       .  S
C1364      C1370   1.405       .  A
C1364      C1365   1.413       .  A
C1365      C1367   1.400       .  A
C1365      C1366   1.404   1_455  A
C1366      H1373   1.083       .  S
C1367      C1368   1.396       .  A
C1367      H1374   1.084       .  S
C1368      C1369   1.408       .  A
C1368      H1375   1.081       .  S
C1369      C1370   1.408       .  A
C1370      H1376   1.082       .  S
C1377      C1378   1.407       .  A
C1377      C1382   1.411       .  A
C1378      C1379   1.397       .  A
C1378      H1387   1.081       .  S
C1379      C1380   1.401       .  A
C1379      H1388   1.084       .  S
C1380      C1386   1.405       .  A
C1380      C1381   1.411       .  A
C1381      C1383   1.403       .  A
C1381      C1382   1.407       .  A
C1382      H1389   1.082       .  S
C1383      C1384   1.400       .  A
C1383      H1390   1.084       .  S
C1384      C1385   1.408       .  A
C1384      H1391   1.081       .  S
C1385      C1386   1.409       .  A
C1386      H1392   1.082       .  S
C1393      C1394   1.408       .  A
C1393      C1398   1.406       .  A
C1394      C1395   1.402       .  A
C1394      H1403   1.082       .  S
C1395      C1396   1.404       .  A
C1395      H1404   1.084       .  S
C1396      C1402   1.409       .  A
C1396      C1397   1.412       .  A
C1397      C1399   1.399       .  A
C1397      C1398   1.403       .  A
C1398      H1405   1.082       .  S
C1399      C1400   1.394       .  A
C1399      H1406   1.084       .  S
C1400      C1401   1.406       .  A
C1400      H1407   1.081       .  S
C1401      C1402   1.411       .  A
C1402      H1408   1.083       .  S
C1409      C1410   1.407       .  A
C1409      C1414   1.404       .  A
C1410      C1411   1.406       .  A
C1410      H1419   1.083       .  S
C1411      C1412   1.407       .  A
C1411      H1420   1.083       .  S
C1412      C1418   1.414       .  A
C1412      C1413   1.414       .  A
C1413      C1415   1.398       .  A
C1413      C1414   1.398       .  A
C1414      H1421   1.083       .  S
C1415      C1416   1.390       .  A
C1415      H1422   1.084       .  S
C1416      C1417   1.403       .  A
C1416      H1423   1.083       .  S
C1417      C1418   1.410       .  A
C1418      H1424   1.084       .  S
C1425      C1426   1.407       .  A
C1425      C1430   1.410       .  A
C1426      C1427   1.401       .  A
C1426      H1435   1.082       .  S
C1427      C1428   1.404       .  A
C1427      H1436   1.083       .  S
C1428      C1434   1.411       .  A
C1428      C1429   1.413       .  A
C1429      C1431   1.403       .  A
C1429      C1430   1.409       .  A
C1430      H1437   1.083       .  S
C1431      C1432   1.400       .  A
C1431      H1438   1.083       .  S
C1432      C1433   1.407       .  A
C1432      H1439   1.082       .  S
C1433      C1434   1.410       .  A
C1434      H1440   1.083       .  S
C1441      C1442   1.406       .  A
C1441      C1446   1.411       .  A
C1442      C1443   1.396       .  A
C1442      H1451   1.081       .  S
C1443      C1444   1.402       .  A
C1443      H1452   1.084       .  S
C1444      C1450   1.403       .  A
C1444      C1445   1.411       .  A
C1445      C1447   1.404       .  A
C1445      C1446   1.407       .  A
C1446      H1453   1.083       .  S
C1447      C1448   1.402       .  A
C1447      H1454   1.084       .  S
C1448      C1449   1.408       .  A
C1448      H1455   1.081       .  S
C1449      C1450   1.410       .  A
C1450      H1456   1.081       .  S
C1457      C1458   1.407       .  A
C1457      C1462   1.407       .  A
C1458      C1459   1.406       .  A
C1458      H1467   1.083       .  S
C1459      C1460   1.407       .  A
C1459      H1468   1.082       .  S
C1460      C1466   1.414       .  A
C1460      C1461   1.413       .  A
C1461      C1463   1.400       .  A
C1461      C1462   1.404       .  A
C1462      H1469   1.082       .  S
C1463      C1464   1.394       .  A
C1463      H1470   1.083       .  S
C1464      C1465   1.404       .  A
C1464      H1471   1.083       .  S
C1465      C1466   1.411       .  A
C1466      H1472   1.083       .  S
C1473      C1474   1.407       .  A
C1473      C1478   1.408       .  A
C1474      C1475   1.398       .  A
C1474      H1483   1.082       .  S
C1475      C1476   1.402       .  A
C1475      H1484   1.084       .  S
C1476      C1482   1.406       .  A
C1476      C1477   1.413       .  A
C1477      C1479   1.402       .  A
C1477      C1478   1.407       .  A
C1478      H1485   1.084       .  S
C1479      C1480   1.399       .  A
C1479      H1486   1.084       .  S
C1480      C1481   1.407       .  A
C1480      H1487   1.082       .  S
C1481      C1482   1.408       .  A
C1482      H1488   1.084       .  S
C1489      C1490   1.407       .  A
C1489      C1494   1.409       .  A
C1490      C1491   1.400       .  A
C1490      H1499   1.082       .  S
C1491      C1492   1.403       .  A
C1491      H1500   1.084       .  S
C1492      C1498   1.409       .  A
C1492      C1493   1.413       .  A
C1493      C1495   1.401       .  A
C1493      C1494   1.408       .  A
C1494      H1501   1.084       .  S
C1495      C1496   1.399       .  A
C1495      H1502   1.084       .  S
C1496      C1497   1.409       .  A
C1496      H1503   1.081       .  S
C1497      C1498   1.411       .  A
C1498      H1504   1.083       .  S
C1505      C1506   1.406   1_556  A
C1505      C1510   1.410       .  A
C1506      C1507   1.399       .  A
C1506      H1515   1.081       .  S
C1507      C1508   1.403       .  A
C1507      H1516   1.084       .  S
C1508      C1514   1.404       .  A
C1508      C1509   1.411   1_554  A
C1509      C1511   1.401       .  A
C1509      C1510   1.402       .  A
C1510      H1517   1.082       .  S
C1511      C1512   1.397       .  A
C1511      H1518   1.084       .  S
C1512      C1513   1.407       .  A
C1512      H1519   1.081       .  S
C1513      C1514   1.410   1_556  A
C1514      H1520   1.083       .  S
C1521      C1522   1.408       .  A
C1521      C1526   1.410       .  A
C1522      C1523   1.399       .  A
C1522      H1531   1.081       .  S
C1523      C1524   1.401       .  A
C1523      H1532   1.083       .  S
C1524      C1530   1.408       .  A
C1524      C1525   1.412       .  A
C1525      C1527   1.402       .  A
C1525      C1526   1.408       .  A
C1526      H1533   1.082       .  S
C1527      C1528   1.399       .  A
C1527      H1534   1.083       .  S
C1528      C1529   1.407       .  A
C1528      H1535   1.082       .  S
C1529      C1530   1.409       .  A
C1530      H1536   1.082       .  S
C1537      C1538   1.404       .  A
C1537      C1542   1.407       .  A
C1538      C1539   1.390       .  A
C1538      H1547   1.083       .  S
C1539      C1540   1.399       .  A
C1539      H1548   1.083       .  S
C1540      C1546   1.398       .  A
C1540      C1541   1.413       .  A
C1541      C1543   1.405       .  A
C1541      C1542   1.410       .  A
C1542      H1549   1.084       .  S
C1543      C1544   1.403       .  A
C1543      H1550   1.083       .  S
C1544      C1545   1.407       .  A
C1544      H1551   1.082       .  S
C1545      C1546   1.406       .  A
C1546      H1552   1.081       .  S
C1553      C1554   1.406       .  A
C1553      C1558   1.410       .  A
C1554      C1555   1.395       .  A
C1554      H1563   1.082       .  S
C1555      C1556   1.400       .  A
C1555      H1564   1.083       .  S
C1556      C1562   1.403       .  A
C1556      C1557   1.413       .  A
C1557      C1559   1.404       .  A
C1557      C1558   1.409       .  A
C1558      H1565   1.083       .  S
C1559      C1560   1.401       .  A
C1559      H1566   1.083       .  S
C1560      C1561   1.407       .  A
C1560      H1567   1.083       .  S
C1561      C1562   1.406       .  A
C1562      H1568   1.083       .  S
C1569      C1570   1.405       .  A
C1569      C1574   1.407       .  A
C1570      C1571   1.392       .  A
C1570      H1579   1.083       .  S
C1571      C1572   1.398       .  A
C1571      H1580   1.084       .  S
C1572      C1578   1.400       .  A
C1572      C1573   1.414       .  A
C1573      C1575   1.405       .  A
C1573      C1574   1.411       .  A
C1574      H1581   1.084       .  S
C1575      C1576   1.403       .  A
C1575      H1582   1.083       .  S
C1576      C1577   1.406       .  A
C1576      H1583   1.083       .  S
C1577      C1578   1.404       .  A
C1578      H1584   1.083       .  S
C1585      C1586   1.409       .  A
C1585      C1590   1.404       .  A
C1586      C1587   1.399       .  A
C1586      H1595   1.081       .  S
C1587      C1588   1.402       .  A
C1587      H1596   1.084       .  S
C1588      C1594   1.407       .  A
C1588      C1589   1.413       .  A
C1589      C1591   1.398       .  A
C1589      C1590   1.402       .  A
C1590      H1597   1.083       .  S
C1591      C1592   1.394       .  A
C1591      H1598   1.084       .  S
C1592      C1593   1.409       .  A
C1592      H1599   1.080       .  S
C1593      C1594   1.409       .  A
C1594      H1600   1.082       .  S
C1601      C1602   1.407       .  A
C1601      C1606   1.409       .  A
C1602      C1603   1.396       .  A
C1602      H1611   1.082   1_556  S
C1603      C1604   1.400       .  A
C1603      H1612   1.083       .  S
C1604      C1610   1.404       .  A
C1604      C1605   1.413       .  A
C1605      C1607   1.403       .  A
C1605      C1606   1.408       .  A
C1606      H1613   1.083       .  S
C1607      C1608   1.399       .  A
C1607      H1614   1.083       .  S
C1608      C1609   1.406       .  A
C1608      H1615   1.082       .  S
C1609      C1610   1.406       .  A
C1610      H1616   1.083       .  S
C1617      C1618   1.408       .  A
C1617      C1622   1.411       .  A
C1618      C1619   1.400       .  A
C1618      H1627   1.082       .  S
C1619      C1620   1.403       .  A
C1619      H1628   1.084       .  S
C1620      C1626   1.408       .  A
C1620      C1621   1.413       .  A
C1621      C1623   1.404       .  A
C1621      C1622   1.409       .  A
C1622      H1629   1.082       .  S
C1623      C1624   1.401       .  A
C1623      H1630   1.083       .  S
C1624      C1625   1.406       .  A
C1624      H1631   1.083       .  S
C1625      C1626   1.409       .  A
C1626      H1632   1.084       .  S
C1633      C1634   1.408       .  A
C1633      C1638   1.407   1_545  A
C1634      C1635   1.399       .  A
C1634      H1643   1.081       .  S
C1635      C1636   1.402       .  A
C1635      H1644   1.083       .  S
C1636      C1642   1.408       .  A
C1636      C1637   1.413   1_554  A
C1637      C1639   1.400   1_545  A
C1637      C1638   1.405   1_546  A
C1638      H1645   1.082   1_554  S
C1639      C1640   1.396       .  A
C1639      H1646   1.084       .  S
C1640      C1641   1.408   1_565  A
C1640      H1647   1.081       .  S
C1641      C1642   1.409   1_556  A
C1642      H1648   1.083       .  S
C1649      C1650   1.409       .  A
C1649      C1654   1.409       .  A
C1650      C1651   1.403       .  A
C1650      H1659   1.081       .  S
C1651      C1652   1.405       .  A
C1651      H1660   1.084       .  S
C1652      C1658   1.411       .  A
C1652      C1653   1.411       .  A
C1653      C1655   1.400       .  A
C1653      C1654   1.404       .  A
C1654      H1661   1.082       .  S
C1655      C1656   1.396       .  A
C1655      H1662   1.084       .  S
C1656      C1657   1.407       .  A
C1656      H1663   1.081       .  S
C1657      C1658   1.413       .  A
C1658      H1664   1.083       .  S
C1665      C1666   1.403       .  A
C1665      C1670   1.404       .  A
C1666      C1667   1.398       .  A
C1666      H1675   1.083       .  S
C1667      C1668   1.403       .  A
C1667      H1676   1.084       .  S
C1668      C1674   1.403       .  A
C1668      C1669   1.415       .  A
C1669      C1671   1.403   1_545  A
C1669      C1670   1.403       .  A
C1670      H1677   1.085   1_545  S
C1671      C1672   1.398       .  A
C1671      H1678   1.084       .  S
C1672      C1673   1.403   1_565  A
C1672      H1679   1.083       .  S
C1673      C1674   1.404       .  A
C1674      H1680   1.085       .  S
C1681      C1682   1.409       .  A
C1681      C1686   1.412       .  A
C1682      C1683   1.398       .  A
C1682      H1691   1.081       .  S
C1683      C1684   1.400       .  A
C1683      H1692   1.083       .  S
C1684      C1690   1.410       .  A
C1684      C1685   1.413       .  A
C1685      C1687   1.403       .  A
C1685      C1686   1.413       .  A
C1686      H1693   1.083       .  S
C1687      C1688   1.402       .  A
C1687      H1694   1.083       .  S
C1688      C1689   1.410       .  A
C1688      H1695   1.081       .  S
C1689      C1690   1.409       .  A
C1690      H1696   1.082       .  S
C1697      C1698   1.407   1_565  A
C1697      C1702   1.408       .  A
C1698      C1699   1.396       .  A
C1698      H1707   1.082       .  S
C1699      C1700   1.400       .  A
C1699      H1708   1.084       .  S
C1700      C1706   1.406       .  A
C1700      C1701   1.415   1_545  A
C1701      C1703   1.402       .  A
C1701      C1702   1.410       .  A
C1702      H1709   1.084       .  S
C1703      C1704   1.400       .  A
C1703      H1710   1.084       .  S
C1704      C1705   1.408       .  A
C1704      H1711   1.082       .  S
C1705      C1706   1.405   1_565  A
C1706      H1712   1.084       .  S
C1713      C1714   1.404       .  A
C1713      C1718   1.406   1_545  A
C1714      C1715   1.400       .  A
C1714      H1723   1.083       .  S
C1715      C1716   1.403   1_545  A
C1715      H1724   1.084       .  S
C1716      C1722   1.406       .  A
C1716      C1717   1.414       .  A
C1717      C1719   1.404       .  A
C1717      C1718   1.406       .  A
C1718      H1725   1.084       .  S
C1719      C1720   1.399       .  A
C1719      H1726   1.083       .  S
C1720      C1721   1.403       .  A
C1720      H1727   1.083       .  S
C1721      C1722   1.405       .  A
C1722      H1728   1.084   1_565  S
