geometry optimzed in LAMMPS
_audit_creation_date              2020-12-01 
_audit_creation_method            'lammps2cif' 
_symmetry_space_group_name_H-M    'P1' 
_symmetry_Int_Tables_number       1 
_symmetry_cell_setting            triclinic 
loop_ 
_symmetry_equiv_pos_as_xyz 
  x,y,z 
_cell_length_a                    53.34675325 
_cell_length_b                    53.42010789991875 
_cell_length_c                    48.695715835448816 
_cell_angle_alpha                 90.41485507464418 
_cell_angle_beta                  89.74716759322153 
_cell_angle_gamma                 119.9467087894458 
loop_ 
_atom_site_label 
_atom_site_type_symbol 
_atom_site_fract_x 
_atom_site_fract_y 
_atom_site_fract_z 
_atom_site_charge 
Zr1        Zr  0.37765322  0.42867828  0.40872443     2.17500
O2          O  0.40040150  0.46440074  0.44529946    -0.51200
O3          O  0.41803259  0.42162982  0.39977575    -0.74400
O4          O  0.38105695  0.40577246  0.45071148    -0.81200
O5          O  0.39554165  0.48654065  0.35445481    -0.82900
O6          O  0.34018385  0.36188040  0.45423884    -0.78500
O7          O  0.41262763  0.47727525  0.39355045    -0.90200
O8          O  0.40493460  0.38729522  0.36647715    -0.76100
O9          O  0.35516400  0.37805822  0.40008653    -0.85600
O10         O  0.37866087  0.42318001  0.36015017    -0.85300
O11         O  0.32997066  0.40847132  0.42773550    -0.72100
O12         O  0.35189443  0.45046752  0.38963837    -0.84200
Zr13       Zr  0.28125837  0.37360691  0.34956155     2.26400
Zr14       Zr  0.30697593  0.35778062  0.41742114     2.06300
Zr15       Zr  0.35161780  0.44340910  0.34096271     2.10000
Zr16       Zr  0.35604206  0.37261311  0.35182566     1.78800
O17         O  0.33768899  0.47935373  0.33072271    -0.93000
O18         O  0.35161588  0.32648983  0.36444433    -0.40800
O19         O  0.32932844  0.39284420  0.33197767    -0.77400
O20         O  0.30726497  0.35141404  0.36855247    -0.96100
O21         O  0.28066067  0.37884549  0.39816033    -0.89400
O22         O  0.30358673  0.42414066  0.35841672    -0.92300
C23         C  0.42306268  0.40561950  0.38372298     1.01500
C24         C  0.41427008  0.49374200  0.37362439     1.14400
C25         C  0.36546920  0.38133872  0.46260457     1.05200
O26         O  0.30265209  0.31074068  0.42464367    -0.94400
O27         O  0.25864256  0.31791140  0.40641015    -0.90200
O28         O  0.24469818  0.32636098  0.36503472    -0.83300
C29         C  0.24059815  0.31094704  0.38642800     1.11800
O30         O  0.32261596  0.46277860  0.44613034    -0.96400
Zr31       Zr  0.30380376  0.42924350  0.40736615     1.88900
O32         O  0.24386342  0.38690577  0.35681570    -0.73100
O33         O  0.28035135  0.35456158  0.45929589    -0.52300
O34         O  0.27268144  0.41003358  0.44758454    -0.97000
O35         O  0.30849852  0.47608612  0.39746534    -0.54200
O36         O  0.25621604  0.41768163  0.39319957    -0.73600
C37         C  0.23881473  0.40210299  0.37423148     0.98800
O38         O  0.24860574  0.33464613  0.31884997    -0.62400
O39         O  0.38582608  0.46237213  0.30283074    -0.57200
O40         O  0.28658539  0.38749704  0.30087053    -0.93900
O41         O  0.33155598  0.42624708  0.29562857    -0.92300
O42         O  0.38651491  0.38829932  0.31103146    -0.92700
O43         O  0.33768442  0.33901089  0.31318172    -0.91400
C44         C  0.30752375  0.40604995  0.28596323     1.17600
H45         H  0.39820234  0.43308952  0.35309651     0.33600
H46         H  0.29735589  0.33105854  0.36405302     0.44400
H47         H  0.29364368  0.43263841  0.34923191     0.37900
H48         H  0.33114562  0.41161866  0.44736330     0.34400
H49         H  0.36289842  0.32283976  0.35038609     0.26200
H50         H  0.27410669  0.33500835  0.46645026     0.32100
H51         H  0.25733312  0.39041781  0.44213552     0.38100
H52         H  0.38103185  0.40113126  0.30141996     0.32500
H53         H  0.39104672  0.48287251  0.30107141     0.31400
H54         H  0.34761183  0.49455984  0.34486275     0.33100
H55         H  0.29155698  0.47558445  0.40642861     0.32000
H56         H  0.32163617  0.34117907  0.30572777     0.36000
H57         H  0.23723243  0.34190722  0.30917389     0.28800
H58         H  0.41682664  0.46225312  0.45168152     0.33000
H59         H  0.30650667  0.46564509  0.45231658     0.35900
H60         H  0.40363553  0.46297296  0.30946120     0.28500
H61         H  0.26097732  0.33295893  0.30457951     0.41300
H62         H  0.31569301  0.30962849  0.41079083     0.31400
H63         H  0.36320059  0.33066535  0.38143233     0.39000
H64         H  0.30446792  0.47552071  0.37759040     0.30900
H65         H  0.29513083  0.36781317  0.47255266     0.30900
H66         H  0.38637071  0.45730150  0.46067627     0.31200
Zr67       Zr  0.42993699  0.36668173  0.57714798     2.17500
O68         O  0.46110004  0.38167255  0.53675689    -0.51200
O69         O  0.42504330  0.40913257  0.58191334    -0.74400
O70         O  0.40098325  0.36319256  0.53635983    -0.81200
O71         O  0.49222664  0.38883462  0.62749100    -0.82900
O72         O  0.35905690  0.31988404  0.53815727    -0.78500
O73         O  0.48080311  0.40191387  0.58699930    -0.90200
O74         O  0.39558816  0.40093868  0.61869385    -0.76100
O75         O  0.38013470  0.34429206  0.58920954    -0.85600
O76         O  0.42847527  0.37401064  0.62550811    -0.85300
O77         O  0.40890781  0.31650513  0.56505919    -0.72100
O78         O  0.45322678  0.34410227  0.59977196    -0.84200
Zr79       Zr  0.38054499  0.27800443  0.64899916     2.26400
Zr80       Zr  0.35922927  0.29404475  0.57908162     2.06300
Zr81       Zr  0.44998179  0.34977732  0.64812958     2.10000
Zr82       Zr  0.37865466  0.35243733  0.63671963     1.78800
O83         O  0.48716781  0.33812109  0.66056506    -0.93000
O84         O  0.33570591  0.35221374  0.61948533    -0.40800
O85         O  0.40016796  0.32831417  0.65958672    -0.77400
O86         O  0.35649685  0.30122834  0.62746614    -0.96100
O87         O  0.38257901  0.27120224  0.60073335    -0.89400
O88         O  0.43042255  0.29989740  0.63700234    -0.92300
C89         C  0.41179439  0.41681915  0.59899166     1.01500
C90         C  0.49866451  0.40475847  0.60620706     1.14400
C91         C  0.37593304  0.34433854  0.52683267     1.05200
O92         O  0.31176126  0.28962897  0.57434816    -0.94400
O93         O  0.31997781  0.24840386  0.59574701    -0.90200
O94         O  0.33063374  0.24116070  0.63905847    -0.83300
C95         C  0.31389840  0.23389564  0.61810413     1.11800
O96         O  0.46675909  0.31224752  0.55031557    -0.96400
Zr97       Zr  0.43234357  0.29444637  0.58825273     1.88900
O98         O  0.39414815  0.24027189  0.64390225    -0.73100
O99         O  0.35296020  0.26071354  0.54180353    -0.52300
O100        O  0.41484070  0.26066439  0.54967538    -0.97000
O101        O  0.47934176  0.30061195  0.60064065    -0.54200
O102        O  0.42101503  0.24833808  0.60528294    -0.73600
C103        C  0.40752534  0.23319345  0.62610669     0.98800
O104        O  0.35513419  0.24669263  0.68785097    -0.62400
O105        O  0.47128580  0.39060135  0.68004752    -0.57200
O106        O  0.39517875  0.29376738  0.69713587    -0.93900
O107        O  0.43699020  0.33692664  0.69576059    -0.92300
O108        O  0.39589939  0.38405196  0.67682421    -0.92700
O109        O  0.34227178  0.33721797  0.67277780    -0.91400
C110        C  0.41624774  0.31610471  0.70884594     1.17600
H111        H  0.43897748  0.39427623  0.63033725     0.33600
H112        H  0.33653170  0.29217866  0.63325438     0.44400
H113        H  0.43998408  0.29155759  0.64710056     0.37900
H114        H  0.41029900  0.31464338  0.54543521     0.34400
H115        H  0.33594301  0.36897058  0.62857845     0.26200
H116        H  0.33454317  0.25640364  0.53296727     0.32100
H117        H  0.39624748  0.24424043  0.55598934     0.38100
H118        H  0.39930601  0.37279600  0.69090215     0.32500
H119        H  0.49133872  0.39473148  0.68308409     0.31400
H120        H  0.49934342  0.35300174  0.67426884     0.33100
H121        H  0.47622862  0.29011414  0.61812355     0.32000
H122        H  0.34076157  0.31923478  0.68001129     0.36000
H123        H  0.33752576  0.24815910  0.69080023     0.28800
H124        H  0.45802820  0.39654246  0.52787761     0.33000
H125        H  0.47185829  0.29705235  0.54676686     0.35900
H126        H  0.47342489  0.40735728  0.66954562     0.28500
H127        H  0.34800717  0.22664366  0.68134975     0.41300
H128        H  0.30921069  0.29835825  0.59137333     0.31400
H129        H  0.33995236  0.35792683  0.59996928     0.39000
H130        H  0.49118998  0.32126967  0.60575387     0.30900
H131        H  0.36800585  0.27240531  0.52811020     0.30900
H132        H  0.45216082  0.36485584  0.52411261     0.31200
Zr133      Zr  0.05602992  0.43232614  0.40679239     2.17500
O134        O  0.01833374  0.41624827  0.44172795    -0.51200
O135        O  0.06370372  0.48025208  0.40105272    -0.74400
O136        O  0.07641506  0.45706808  0.45032077    -0.81200
O137        O  0.00253348  0.39757825  0.34740793    -0.82900
O138        O  0.11925322  0.45816519  0.45609769    -0.78500
O139        O  0.00856570  0.41965853  0.38901318    -0.90200
O140        O  0.10920478  0.00810574  0.38165592    -0.76100
O141        O  0.10727341  0.45971404  0.40284026    -0.85600
O142        O  0.06596499  0.44306117  0.35908831    -0.85300
O143        O  0.07333514  0.40218692  0.42512140    -0.72100
O144        O  0.03539922  0.38712003  0.38287804    -0.84200
Zr145      Zr  0.11428753  0.39368442  0.34884629     2.26400
Zr146      Zr  0.12484172  0.42946198  0.41948580     2.06300
Zr147      Zr  0.04689061  0.39786840  0.33531891     2.10000
Zr148      Zr  0.11721130  0.47025795  0.35566449     1.78800
O149        O  0.01180698  0.34977676  0.31874951    -0.93000
O150        O  0.17066806  0.01667543  0.37996785    -0.40800
O151        O  0.09817301  0.42521658  0.33189600    -0.77400
O152        O  0.13581586  0.44020681  0.37160336    -0.96100
O153        O  0.10439808  0.38365244  0.39649611    -0.89400
O154        O  0.06301826  0.36641107  0.35229300    -0.92300
C155        C  0.09158171  0.00773382  0.40024055     1.01500
C156        C  0.99364741  0.40684346  0.36745467     1.14400
C157        C  0.10005896  0.46486482  0.46345115     1.05200
O158        O  0.17200338  0.46897013  0.43322409    -0.94400
O159        O  0.16616218  0.42269842  0.41033005    -0.90200
O160        O  0.15951479  0.40232436  0.36797788    -0.83300
C161        C  0.17404534  0.41265601  0.39005963     1.11800
O162        O  0.01184079  0.34185094  0.43106302    -0.96400
Zr163      Zr  0.05309366  0.35733761  0.40027482     1.88900
O164        O  0.10078880  0.34279552  0.35264318    -0.73100
O165        O  0.12124172  0.40169063  0.46023424    -0.52300
O166        O  0.06199006  0.33914504  0.44271619    -0.97000
O167        O  0.00932236  0.31588689  0.38231389    -0.54200
O168        O  0.06831741  0.32354485  0.38739966    -0.73600
C169        C  0.08491032  0.32219226  0.36916121     0.98800
O170        O  0.15056871  0.39978835  0.31468020    -0.62400
O171        O  0.03302027  0.41889331  0.29816389    -0.57200
O172        O  0.10567966  0.38849420  0.29951493    -0.93900
O173        O  0.06945810  0.39819528  0.29155134    -0.92300
O174        O  0.10755225  0.48756536  0.31307775    -0.92700
O175        O  0.15744260  0.49015266  0.32336940    -0.91400
C176        C  0.08968305  0.39341852  0.28342346     1.17600
H177        H  0.05709071  0.45370027  0.35217417     0.33600
H178        H  0.15650493  0.45052261  0.36882314     0.44400
H179        H  0.05528874  0.34883186  0.34156853     0.37900
H180        H  0.06840614  0.39858066  0.44436374     0.34400
H181        H  0.17069074  0.03346858  0.37145858     0.26200
H182        H  0.13054252  0.39031419  0.45491801     0.32100
H183        H  0.05281150  0.31799083  0.43995864     0.38100
H184        H  0.10203926  0.97188406  0.31117621     0.32500
H185        H  0.01339008  0.40362556  0.29264996     0.31400
H186        H  0.99327290  0.34553765  0.32738075     0.33100
H187        H  0.01557974  0.30916943  0.36606308     0.32000
H188        H  0.15653920  0.47300273  0.31444951     0.36000
H189        H  0.16792581  0.41871798  0.31865269     0.28800
H190        H  0.01894744  0.43407893  0.44847863     0.33000
H191        H  0.00563726  0.32159434  0.43585976     0.35900
H192        H  0.03016527  0.43409743  0.30686126     0.28500
H193        H  0.15621173  0.38516226  0.31890951     0.41300
H194        H  0.17792316  0.48297509  0.41798689     0.31400
H195        H  0.16756340  0.01853387  0.39975654     0.39000
H196        H  0.99794252  0.32421514  0.37463764     0.30900
H197        H  0.13483312  0.41620847  0.47350845     0.30900
H198        H  0.02547489  0.40967878  0.45726346     0.31200
Zr199      Zr  0.11193205  0.04991941  0.58990354     2.17500
O200        O  0.09385583  0.06826822  0.55394181    -0.51200
O201        O  0.07040147  0.00188013  0.59307437    -0.74400
O202        O  0.11166559  0.02754183  0.54616404    -0.81200
O203        O  0.09014941  0.08435036  0.64685615    -0.82900
O204        O  0.15441956  0.02795492  0.54287575    -0.78500
O205        O  0.07565374  0.06113545  0.60561451    -0.90200
O206        O  0.08467238  0.47644477  0.61065142    -0.76100
O207        O  0.13547730  0.02247063  0.59518023    -0.85600
O208        O  0.10751816  0.03766033  0.63735408    -0.85300
O209        O  0.16069092  0.08107707  0.57497784    -0.72100
O210        O  0.13490412  0.09455173  0.61494680    -0.84200
Zr211      Zr  0.20477370  0.08676972  0.65418127     2.26400
Zr212      Zr  0.18454291  0.05386249  0.58218028     2.06300
Zr213      Zr  0.13204073  0.08218983  0.66234826     2.10000
Zr214      Zr  0.13091375  0.01002616  0.64207510     1.78800
O215        O  0.14193974  0.12869139  0.68098764    -0.93000
O216        O  0.13280570  0.46425558  0.61911287    -0.40800
O217        O  0.15550653  0.05451134  0.66725925    -0.77400
O218        O  0.18109474  0.04094912  0.62975186    -0.96100
O219        O  0.20842669  0.09868643  0.60674246    -0.89400
O220        O  0.18113253  0.11438968  0.64910207    -0.92300
C221        C  0.06837779  0.47906808  0.59274234     1.01500
C222        C  0.07281874  0.07447227  0.62636873     1.14400
C223        C  0.12909581  0.02109477  0.53397843     1.05200
O224        O  0.19147872  0.01384994  0.56844539    -0.94400
O225        O  0.23205340  0.06135404  0.59334976    -0.90200
O226        O  0.24275216  0.07813011  0.63721720    -0.83300
C227        C  0.24858534  0.06985366  0.61448867     1.11800
O228        O  0.16506730  0.14434159  0.56679346    -0.96400
Zr229      Zr  0.18380580  0.12507141  0.60116362     1.88900
O230        O  0.24314572  0.13787992  0.65190881    -0.73100
O231        O  0.21234557  0.08335456  0.54343634    -0.52300
O232        O  0.21438585  0.14383976  0.56059884    -0.97000
O233        O  0.17667844  0.16424110  0.61767070    -0.54200
O234        O  0.23140919  0.15871838  0.61766568    -0.73600
C235        C  0.24869999  0.15926621  0.63607498     0.98800
O236        O  0.23292708  0.08175027  0.69091561    -0.62400
O237        O  0.09301217  0.05820912  0.69571442    -0.57200
O238        O  0.19518378  0.08735969  0.70337197    -0.93900
O239        O  0.14980282  0.08064609  0.70767999    -0.92300
O240        O  0.10268774  0.99205572  0.68407334    -0.92700
O241        O  0.14866365  0.98745931  0.67388929    -0.91400
C242        C  0.17319952  0.08333329  0.71775723     1.17600
H243        H  0.08751421  0.02694308  0.64305279     0.33600
H244        H  0.19124939  0.03048808  0.63287401     0.44400
H245        H  0.18992659  0.13160595  0.66040358     0.37900
H246        H  0.16096089  0.08538853  0.55571321     0.34400
H247        H  0.11528096  0.44778429  0.62713128     0.26200
H248        H  0.23038393  0.09896815  0.55168716     0.32100
H249        H  0.22458520  0.16511317  0.56283909     0.38100
H250        H  0.10321651  0.50757214  0.68405232     0.32500
H251        H  0.08837668  0.07317265  0.70176813     0.31400
H252        H  0.13404905  0.12440647  0.69989240     0.33100
H253        H  0.19059665  0.17329094  0.63294829     0.32000
H254        H  0.16847114  0.00291959  0.67863781     0.36000
H255        H  0.23128971  0.06261737  0.68802227     0.28800
H256        H  0.07794438  0.05090202  0.54503351     0.33000
H257        H  0.14411357  0.13013665  0.56589573     0.35900
H258        H  0.07588247  0.04421173  0.68505776     0.28500
H259        H  0.25341977  0.09602641  0.68700882     0.41300
H260        H  0.18147821  0.99911793  0.58282744     0.31400
H261        H  0.12882707  0.46276201  0.59914742     0.39000
H262        H  0.15747430  0.15444341  0.62668906     0.30900
H263        H  0.21848579  0.07115943  0.53334289     0.30900
H264        H  0.10945637  0.07655676  0.54000923     0.31200
Zr265      Zr  0.05210806  0.11007744  0.41652269     2.17500
O266        O  0.06579877  0.09172075  0.45596304    -0.51200
O267        O  0.00602019  0.06745751  0.40761544    -0.74400
O268        O  0.02334239  0.10996243  0.45716252    -0.81200
O269        O  0.09457264  0.09172065  0.36339721    -0.82900
O270        O  0.02442550  0.15314989  0.45714984    -0.78500
O271        O  0.07120375  0.07754196  0.40457913    -0.90200
O272        O  0.48361696  0.07911895  0.37446069    -0.76100
O273        O  0.02444472  0.13254188  0.40572277    -0.85600
O274        O  0.04502457  0.10588355  0.36778648    -0.85300
O275        O  0.08017322  0.15953044  0.43161076    -0.72100
O276        O  0.09873394  0.13499249  0.39496244    -0.84200
Zr277      Zr  0.09276782  0.20299223  0.35060539     2.26400
Zr278      Zr  0.05284509  0.18218609  0.41891017     2.06300
Zr279      Zr  0.09140656  0.13205644  0.34624483     2.10000
Zr280      Zr  0.01669002  0.12764712  0.35776816     1.78800
O281        O  0.13999763  0.14326126  0.33300975    -0.93000
O282        O  0.47401482  0.13049555  0.37705175    -0.40800
O283        O  0.06307698  0.15375790  0.33643001    -0.77400
O284        O  0.04473364  0.17809441  0.37031654    -0.96100
O285        O  0.09994951  0.20716815  0.39901185    -0.89400
O286        O  0.12093637  0.18095463  0.36085789    -0.92300
C287        C  0.48453346  0.06173215  0.39210399     1.01500
C288        C  0.08602089  0.07539017  0.38446316     1.14400
C289        C  0.01625994  0.12813001  0.46723044     1.05200
O290        O  0.00976465  0.18653938  0.42436604    -0.94400
O291        O  0.06171880  0.22993817  0.40645712    -0.90200
O292        O  0.08299803  0.24087905  0.36442709    -0.83300
C293        C  0.07247829  0.24659924  0.38563909     1.11800
O294        O  0.14237942  0.16623693  0.44840503    -0.96400
Zr295      Zr  0.12669673  0.18387717  0.40979515     1.88900
O296        O  0.14369301  0.24063756  0.35563930    -0.73100
O297        O  0.07594120  0.21106893  0.45972840    -0.52300
O298        O  0.14022840  0.21562713  0.44984846    -0.97000
O299        O  0.16733610  0.17660694  0.39923450    -0.54200
O300        O  0.16220089  0.23069898  0.39322502    -0.73600
C301        C  0.16409361  0.24674967  0.37303612     0.98800
O302        O  0.08892293  0.22995421  0.31211712    -0.62400
O303        O  0.07128311  0.09377531  0.31159878    -0.57200
O304        O  0.09801789  0.19435685  0.30221220    -0.93900
O305        O  0.09440664  0.15021313  0.29988221    -0.92300
O306        O  0.00501200  0.09869562  0.31593336    -0.92700
O307        O  0.99522009  0.14168953  0.32128251    -0.91400
C308        C  0.09657935  0.17292738  0.28871836     1.17600
H309        H  0.03578990  0.08601521  0.36166365     0.33600
H310        H  0.03416425  0.18764525  0.36508458     0.44400
H311        H  0.13923753  0.18996318  0.35125667     0.37900
H312        H  0.08254871  0.16027200  0.45132204     0.34400
H313        H  0.45714082  0.11268011  0.36988996     0.26200
H314        H  0.09296224  0.22875093  0.45268978     0.32100
H315        H  0.14194878  0.23383684  0.44304154     0.38100
H316        H  0.51965815  0.10576718  0.30763702     0.32500
H317        H  0.08785148  0.09178809  0.30520045     0.31400
H318        H  0.13768171  0.12487205  0.32572745     0.33100
H319        H  0.18075675  0.19346326  0.38806155     0.32000
H320        H  0.01143511  0.15996053  0.31415982     0.36000
H321        H  0.06969363  0.22841269  0.31385775     0.28800
H322        H  0.04731468  0.07687011  0.46413623     0.33000
H323        H  0.16237648  0.18166667  0.45261983     0.35900
H324        H  0.05876571  0.07570106  0.32168445     0.28500
H325        H  0.10313462  0.25054370  0.31569892     0.41300
H326        H  0.00335059  0.18699771  0.40542306     0.31400
H327        H  0.47378680  0.12717525  0.39705139     0.39000
H328        H  0.15941475  0.16011238  0.38621199     0.30900
H329        H  0.06254779  0.21768793  0.46610093     0.30900
H330        H  0.07381796  0.10784023  0.46941845     0.31200
Zr331      Zr  0.43145679  0.04771308  0.58575012     2.17500
O332        O  0.41508280  0.01242310  0.54838266    -0.51200
O333        O  0.47824578  0.05220555  0.59335863    -0.74400
O334        O  0.45795918  0.06983091  0.54345906    -0.81200
O335        O  0.39274310  0.99078170  0.64054475    -0.82900
O336        O  0.46374929  0.11494871  0.54090811    -0.78500
O337        O  0.41601184  0.99835064  0.59957060    -0.90200
O338        O  0.00226477  0.08986831  0.62691156    -0.76100
O339        O  0.46172548  0.09810195  0.59436237    -0.85600
O340        O  0.43915429  0.05294259  0.63424237    -0.85300
O341        O  0.40521756  0.07011030  0.56872918    -0.72100
O342        O  0.38449598  0.02763373  0.60651634    -0.84200
Zr343      Zr  0.39546811  0.10595268  0.64836143     2.26400
Zr344      Zr  0.43556331  0.12054380  0.57860147     2.06300
Zr345      Zr  0.39250944  0.03406553  0.65497582     2.10000
Zr346      Zr  0.46890619  0.10353235  0.64242393     1.78800
O347        O  0.34181773  0.00016999  0.66484406    -0.93000
O348        O  0.01299733  0.15080434  0.62506676    -0.40800
O349        O  0.42273130  0.08436589  0.66313021    -0.77400
O350        O  0.44303250  0.12703227  0.62742164    -0.96100
O351        O  0.38880328  0.10128528  0.59969096    -0.89400
O352        O  0.36498945  0.05552257  0.63985126    -0.92300
C353        C  0.00135298  0.07085276  0.61009524     1.01500
C354        C  0.40219918  0.98252671  0.62025334     1.14400
C355        C  0.46824923  0.09464749  0.53196431     1.05200
O356        O  0.48045316  0.16639274  0.57371903    -0.94400
O357        O  0.42670873  0.16014791  0.58988148    -0.90200
O358        O  0.40974302  0.15430986  0.63371327    -0.83300
C359        C  0.41833751  0.16838133  0.61122373     1.11800
O360        O  0.34271548  0.01566327  0.55384002    -0.96400
Zr361      Zr  0.35900481  0.05107291  0.59099450     1.88900
O362        O  0.34453658  0.09303686  0.64517409    -0.73100
O363        O  0.41532546  0.12591575  0.53582561    -0.52300
O364        O  0.34412931  0.06795822  0.55132582    -0.97000
O365        O  0.31453903  0.00685182  0.60266508    -0.54200
O366        O  0.32598428  0.06653462  0.60636262    -0.73600
C367        C  0.32433697  0.08023772  0.62729117     0.98800
O368        O  0.39037447  0.13889246  0.67992359    -0.62400
O369        O  0.40398246  0.01194226  0.69298423    -0.57200
O370        O  0.40034434  0.09746398  0.69754149    -0.93900
O371        O  0.39510272  0.05275856  0.70111067    -0.92300
O372        O  0.48311283  0.08796983  0.68346623    -0.92700
O373        O  0.48605747  0.13863964  0.67984646    -0.91400
C374        C  0.39915161  0.07655694  0.71168659     1.17600
H375        H  0.44830118  0.04240798  0.64076231     0.33600
H376        H  0.45436545  0.14730265  0.63202058     0.44400
H377        H  0.34686404  0.04762381  0.64965430     0.37900
H378        H  0.40255200  0.06718589  0.54911599     0.34400
H379        H  0.02965270  0.14901316  0.63137326     0.26200
H380        H  0.39586204  0.12244975  0.54089828     0.32100
H381        H  0.32285237  0.05529546  0.55045538     0.38100
H382        H  0.96775414  0.08193565  0.69374457     0.32500
H383        H  0.38915273  0.99117433  0.69261886     0.31400
H384        H  0.33703084  0.98313202  0.65314392     0.33100
H385        H  0.30772221  0.01118619  0.62003854     0.32000
H386        H  0.46879873  0.13970861  0.68564933     0.36000
H387        H  0.37444260  0.12654476  0.69261706     0.28800
H388        H  0.43270730  0.01260438  0.54162057     0.33000
H389        H  0.36021376  0.01505038  0.54806840     0.35900
H390        H  0.42227330  0.01267516  0.68766104     0.28500
H391        H  0.40806602  0.14791813  0.69138136     0.41300
H392        H  0.48605791  0.17392824  0.59266884     0.31400
H393        H  0.01272983  0.14821017  0.60489968     0.39000
H394        H  0.32090635  0.99303319  0.60791010     0.30900
H395        H  0.42662487  0.14683642  0.53179964     0.30900
H396        H  0.40948925  0.02106106  0.53337500     0.31200
Zr397      Zr  0.07452615  0.12627132  0.08647281     2.17500
O398        O  0.04130567  0.10713874  0.04776631    -0.51200
O399        O  0.08131426  0.08581629  0.09312582    -0.74400
O400        O  0.10121708  0.12545212  0.04511109    -0.81200
O401        O  0.01736796  0.10456090  0.14320799    -0.82900
O402        O  0.14183141  0.16970711  0.04241425    -0.78500
O403        O  0.02553534  0.09008195  0.10157932    -0.90200
O404        O  0.11587647  0.09860856  0.12598327    -0.76100
O405        O  0.12521141  0.15065396  0.09498291    -0.85600
O406        O  0.08046982  0.12384341  0.13483865    -0.85300
O407        O  0.09313944  0.17465920  0.07030844    -0.72100
O408        O  0.05126447  0.14918741  0.10898321    -0.84200
Zr409      Zr  0.12640396  0.22181483  0.14952347     2.26400
Zr410      Zr  0.14375023  0.19945035  0.08097646     2.06300
Zr411      Zr  0.05943594  0.14885005  0.15730331     2.10000
Zr412      Zr  0.13099402  0.14775237  0.14265119     1.78800
O413        O  0.02104451  0.15880321  0.17001711    -0.93000
O414        O  0.17666994  0.15355133  0.12578336    -0.40800
O415        O  0.11030410  0.17344915  0.16491232    -0.77400
O416        O  0.15012359  0.19748079  0.12937026    -0.96100
O417        O  0.12031803  0.22317367  0.10127472    -0.89400
O418        O  0.07560100  0.19689231  0.14167395    -0.92300
C419        C  0.09753095  0.08065652  0.10842104     1.01500
C420        C  0.00962179  0.08707514  0.12278422     1.14400
C421        C  0.12521822  0.14392372  0.03353813     1.05200
O422        O  0.19114500  0.20429934  0.07350511    -0.94400
O423        O  0.18376003  0.24656530  0.09341024    -0.90200
O424        O  0.17403877  0.25932541  0.13502591    -0.83300
C425        C  0.19018654  0.26389883  0.11391360     1.11800
O426        O  0.03351711  0.17400498  0.05679959    -0.96400
Zr427      Zr  0.06953816  0.19713742  0.09293618     1.88900
O428        O  0.11083688  0.25776831  0.14248196    -0.73100
O429        O  0.14764564  0.22804561  0.04079996    -0.52300
O430        O  0.08167653  0.22590966  0.05128710    -0.97000
O431        O  0.02275957  0.19034413  0.10751580    -0.54200
O432        O  0.08056993  0.24472843  0.10585898    -0.73600
C433        C  0.09549195  0.26230742  0.12495329     0.98800
O434        O  0.16252342  0.25626312  0.18159928    -0.62400
O435        O  0.04422097  0.11306331  0.19379057    -0.57200
O436        O  0.11253923  0.21425873  0.19819232    -0.93900
O437        O  0.07639544  0.16791104  0.20307453    -0.92300
O438        O  0.11577326  0.11863228  0.18411621    -0.92700
O439        O  0.16803993  0.16379430  0.17808088    -0.91400
C440        C  0.09548425  0.19243353  0.21291706     1.17600
H441        H  0.07115437  0.10412175  0.14117467     0.33600
H442        H  0.17046081  0.20783934  0.13391988     0.44400
H443        H  0.06626716  0.20571653  0.15159754     0.37900
H444        H  0.09042790  0.17453591  0.05069174     0.34400
H445        H  0.17833818  0.13775803  0.13449828     0.26200
H446        H  0.15107215  0.24675598  0.04834150     0.32100
H447        H  0.10129424  0.24248176  0.05462030     0.38100
H448        H  0.10081967  0.12219274  0.19232474     0.32500
H449        H  0.02414928  0.10807480  0.19833321     0.31400
H450        H  0.01772664  0.15417660  0.18981420     0.33100
H451        H  0.02711893  0.20482062  0.12223529     0.32000
H452        H  0.16832069  0.18085051  0.18652568     0.36000
H453        H  0.15292121  0.26488904  0.19240254     0.28800
H454        H  0.04353702  0.09100136  0.04048619     0.33000
H455        H  0.02592709  0.18722390  0.05322106     0.35900
H456        H  0.04238394  0.09542110  0.18507908     0.28500
H457        H  0.16657485  0.24472404  0.19482793     0.41300
H458        H  0.19740949  0.20175126  0.09186997     0.31400
H459        H  0.17317453  0.14797259  0.10614366     0.39000
H460        H  0.01327972  0.17153899  0.11709287     0.30900
H461        H  0.16632194  0.23256396  0.03228461     0.30900
H462        H  0.04990798  0.12227244  0.03351776     0.31200
Zr463      Zr  0.12515503  0.05775183  0.91639164     2.17500
O464        O  0.10490976  0.02218911  0.95304724    -0.51200
O465        O  0.08328738  0.06255184  0.90870127    -0.74400
O466        O  0.12042350  0.07982081  0.95877292    -0.81200
O467        O  0.10982089  0.99934778  0.86261174    -0.82900
O468        O  0.16036091  0.12448844  0.96189430    -0.78500
O469        O  0.09190775  0.00851371  0.90153454    -0.90200
O470        O  0.09454643  0.09547441  0.87474945    -0.76100
O471        O  0.14513675  0.10792250  0.90747472    -0.85600
O472        O  0.12323544  0.06206320  0.86778003    -0.85300
O473        O  0.17325393  0.08064684  0.93463869    -0.72100
O474        O  0.15261855  0.03776650  0.89677565    -0.84200
Zr475      Zr  0.21999588  0.11526185  0.85608884     2.26400
Zr476      Zr  0.19363878  0.13090124  0.92409171     2.06300
Zr477      Zr  0.15184384  0.04346019  0.84808716     2.10000
Zr478      Zr  0.14358077  0.11235250  0.85929088     1.78800
O479        O  0.16761719  0.00874404  0.83782245    -0.93000
O480        O  0.14505451  0.15704349  0.87290046    -0.40800
O481        O  0.17160231  0.09351090  0.83932524    -0.77400
O482        O  0.19276030  0.13627910  0.87517999    -0.96100
O483        O  0.22171012  0.11148199  0.90467927    -0.89400
O484        O  0.20015380  0.06515108  0.86500031    -0.92300
C485        C  0.07719915  0.07748854  0.89253770     1.01500
C486        C  0.09117585  0.99187006  0.88194680     1.14400
C487        C  0.13550477  0.10450562  0.97060915     1.05200
O488        O  0.19211489  0.17547782  0.92941119    -0.94400
O489        O  0.24127160  0.17210264  0.91339813    -0.90200
O490        O  0.25528569  0.16256070  0.87237111    -0.83300
C491        C  0.25923573  0.17865638  0.89333470     1.11800
O492        O  0.18151107  0.02619464  0.95095889    -0.96400
Zr493      Zr  0.20095049  0.06144340  0.91395641     1.88900
O494        O  0.25942034  0.10511175  0.86206558    -0.73100
O495        O  0.22078212  0.13809275  0.96629231    -0.52300
O496        O  0.22958034  0.08101229  0.95556607    -0.97000
O497        O  0.20294292  0.01775722  0.90341386    -0.54200
O498        O  0.24982248  0.07739173  0.90005973    -0.73600
C499        C  0.26609979  0.09202034  0.88011359     0.98800
O500        O  0.24746336  0.14860216  0.81920033    -0.62400
O501        O  0.11700529  0.02306289  0.81061301    -0.57200
O502        O  0.21522469  0.10228019  0.80745970    -0.93900
O503        O  0.17168301  0.06132624  0.80264319    -0.92300
O504        O  0.11356914  0.09610901  0.81823612    -0.92700
O505        O  0.16045323  0.14625226  0.82121600    -0.91400
C506        C  0.19479470  0.08273552  0.79279611     1.17600
H507        H  0.10362502  0.05126745  0.86102648     0.33600
H508        H  0.20187486  0.15649415  0.87045678     0.44400
H509        H  0.21082028  0.05736293  0.85572050     0.37900
H510        H  0.17258997  0.07802748  0.95429498     0.34400
H511        H  0.13129991  0.15858859  0.86040568     0.26200
H512        H  0.23764836  0.13625863  0.96065908     0.32100
H513        H  0.24311141  0.07339055  0.95560418     0.38100
H514        H  0.11842676  0.08237128  0.80927125     0.32500
H515        H  0.11308887  0.00299406  0.80830015     0.31400
H516        H  0.15881820  0.99404317  0.85242947     0.33100
H517        H  0.21271995  0.02131890  0.88536728     0.32000
H518        H  0.18144051  0.15317914  0.81995615     0.36000
H519        H  0.24401880  0.16510807  0.82119395     0.28800
H520        H  0.08829364  0.02358272  0.96036101     0.33000
H521        H  0.19749543  0.02297860  0.95659145     0.35900
H522        H  0.09878501  0.02109425  0.81798640     0.28500
H523        H  0.26816092  0.15647321  0.82368209     0.41300
H524        H  0.19163206  0.18173120  0.91043259     0.31400
H525        H  0.13542067  0.15284535  0.89106217     0.39000
H526        H  0.18263827  0.00284485  0.89963069     0.30900
H527        H  0.22904066  0.15886152  0.97069290     0.30900
H528        H  0.11953827  0.02989343  0.96788516     0.31200
Zr529      Zr  0.06717048  0.44432353  0.08029763     2.17500
O530        O  0.08525450  0.47894752  0.04278598    -0.51200
O531        O  0.02059187  0.44076948  0.08513758    -0.74400
O532        O  0.04188727  0.42103106  0.03792905    -0.81200
O533        O  0.10556820  0.50220176  0.13563356    -0.82900
O534        O  0.03858651  0.37689020  0.03551094    -0.78500
O535        O  0.08243108  0.49372727  0.09451914    -0.90200
O536        O  0.49789542  0.40867104  0.11675885    -0.76100
O537        O  0.03755467  0.39371542  0.08761941    -0.85600
O538        O  0.05609978  0.43846152  0.12812741    -0.85300
O539        O  0.09514583  0.42291051  0.06501232    -0.72100
O540        O  0.11245194  0.46499737  0.10382354    -0.84200
Zr541      Zr  0.10167050  0.38743534  0.14538053     2.26400
Zr542      Zr  0.06559801  0.37223300  0.07422850     2.06300
Zr543      Zr  0.10121506  0.45768004  0.15168421     2.10000
Zr544      Zr  0.02686638  0.38787939  0.13498001     1.78800
O545        O  0.14918269  0.49237091  0.16870915    -0.93000
O546        O  0.48538055  0.34753972  0.12062624    -0.40800
O547        O  0.07184128  0.40715479  0.15854916    -0.77400
O548        O  0.05506891  0.36566203  0.12257803    -0.96100
O549        O  0.11131240  0.39276170  0.09725793    -0.89400
O550        O  0.13097886  0.43800837  0.13807382    -0.92300
C551        C  0.50009197  0.42764781  0.09935161     1.01500
C552        C  0.09653605  0.51008109  0.11496923     1.14400
C553        C  0.03322381  0.39638438  0.02632985     1.05200
O554        O  0.02302597  0.32519539  0.06584499    -0.94400
O555        O  0.07226576  0.33167288  0.08666852    -0.90200
O556        O  0.09155803  0.34032684  0.12954225    -0.83300
C557        C  0.08191334  0.32484773  0.10780919     1.11800
O558        O  0.15814264  0.48180053  0.05572456    -0.96400
Zr559      Zr  0.13999929  0.44330269  0.08966525     1.88900
O560        O  0.15279681  0.40022909  0.14329383    -0.73100
O561        O  0.09098262  0.36861485  0.03409558    -0.52300
O562        O  0.15834965  0.43049870  0.04922631    -0.97000
O563        O  0.18248017  0.48695977  0.10639899    -0.54200
O564        O  0.17186655  0.42687520  0.10488948    -0.73600
C565        C  0.17326761  0.41311995  0.12563010     0.98800
O566        O  0.09940223  0.35568280  0.18235268    -0.62400
O567        O  0.07957172  0.47574835  0.18494078    -0.57200
O568        O  0.10031616  0.39791405  0.19442181    -0.93900
O569        O  0.09919708  0.43980267  0.19759534    -0.92300
O570        O  0.01038165  0.40390574  0.17455338    -0.92700
O571        O  0.00638585  0.35240861  0.17161234    -0.91400
C572        C  0.09879860  0.41775570  0.20827618     1.17600
H573        H  0.04616813  0.44859751  0.13378811     0.33600
H574        H  0.04398602  0.34533555  0.12684795     0.44400
H575        H  0.14850905  0.44618631  0.14881477     0.37900
H576        H  0.09889411  0.42596899  0.04553570     0.34400
H577        H  0.46940901  0.34712688  0.13142859     0.26200
H578        H  0.10277669  0.36045708  0.04111207     0.32100
H579        H  0.15057925  0.40942299  0.05073684     0.38100
H580        H  0.53028131  0.41767456  0.18734824     0.32500
H581        H  0.09541470  0.49506995  0.19051182     0.31400
H582        H  0.14722737  0.50869475  0.17590064     0.33100
H583        H  0.18937048  0.48095845  0.12254247     0.32000
H584        H  0.02241898  0.35835402  0.18488916     0.36000
H585        H  0.08097668  0.33727393  0.17996310     0.28800
H586        H  0.06790821  0.47837176  0.03486352     0.33000
H587        H  0.17837454  0.48678542  0.05199409     0.35900
H588        H  0.06606590  0.47963038  0.17439205     0.28500
H589        H  0.11480547  0.35098386  0.17829747     0.41300
H590        H  0.01300145  0.31944080  0.08379398     0.31400
H591        H  0.48198784  0.35170776  0.10165985     0.39000
H592        H  0.17473516  0.49892090  0.11415096     0.30900
H593        H  0.07571225  0.35283038  0.02295643     0.30900
H594        H  0.09179767  0.47014074  0.02855597     0.31200
Zr595      Zr  0.45061416  0.37801280  0.91243551     2.17500
O596        O  0.43626905  0.40001713  0.94867543    -0.51200
O597        O  0.49958635  0.41675165  0.90677006    -0.74400
O598        O  0.47529007  0.37776733  0.95534404    -0.81200
O599        O  0.41993315  0.40104287  0.85279018    -0.82900
O600        O  0.46914525  0.33262917  0.95965976    -0.78500
O601        O  0.43973770  0.41468729  0.89555260    -0.90200
O602        O  0.02572016  0.40419347  0.87147945    -0.76100
O603        O  0.47448396  0.35079323  0.90718622    -0.85600
O604        O  0.46148973  0.37906126  0.86454009    -0.85300
O605        O  0.41748957  0.33065263  0.92930804    -0.72100
O606        O  0.40576709  0.35637277  0.88764799    -0.84200
Zr607      Zr  0.40644145  0.28135301  0.85195526     2.26400
Zr608      Zr  0.44097659  0.30299532  0.92187011     2.06300
Zr609      Zr  0.41672429  0.35557651  0.83995486     2.10000
Zr610      Zr  0.48624389  0.35273228  0.86016668     1.78800
O611        O  0.37070472  0.34891361  0.82362608    -0.93000
O612        O  0.03304952  0.35247397  0.87079936    -0.40800
O613        O  0.44116555  0.32874642  0.83575159    -0.77400
O614        O  0.45310164  0.30385229  0.87432184    -0.96100
O615        O  0.39539815  0.28079715  0.89926926    -0.89400
O616        O  0.38241546  0.30861789  0.85637815    -0.92300
C617        C  0.02508848  0.42205150  0.88903549     1.01500
C618        C  0.42856965  0.41830169  0.87351983     1.14400
C619        C  0.47939655  0.35875783  0.96771544     1.05200
O620        O  0.47758318  0.29259646  0.93896643    -0.94400
O621        O  0.43484379  0.25595650  0.91176992    -0.90200
O622        O  0.41417792  0.24326619  0.86960447    -0.83300
C623        C  0.42468974  0.23857460  0.89133595     1.11800
O624        O  0.36143077  0.33788715  0.93607050    -0.96400
Zr625      Zr  0.37285648  0.30938419  0.90440989     1.88900
O626        O  0.35508104  0.24566587  0.85904924    -0.73100
O627        O  0.40776287  0.27661283  0.95910049    -0.52300
O628        O  0.35433817  0.28369524  0.94753850    -0.97000
O629        O  0.33262098  0.31375313  0.88638547    -0.54200
O630        O  0.33691240  0.26054684  0.89375569    -0.73600
C631        C  0.33487175  0.24192008  0.87597042     0.98800
O632        O  0.41037410  0.25126941  0.81613260    -0.62400
O633        O  0.44252840  0.39016521  0.80346123    -0.57200
O634        O  0.39742956  0.28459075  0.80348421    -0.93900
O635        O  0.41152437  0.33163953  0.79553115    -0.92300
O636        O  0.50519421  0.37947371  0.81768585    -0.92700
O637        O  0.50591055  0.33085773  0.82915831    -0.91400
C638        C  0.40316976  0.30566019  0.78733324     1.17600
H639        H  0.47303053  0.39860215  0.85799665     0.33600
H640        H  0.46252433  0.29263990  0.87124822     0.44400
H641        H  0.36487882  0.30011845  0.84561887     0.37900
H642        H  0.41394488  0.33156543  0.94865385     0.34400
H643        H  0.05009000  0.36872168  0.86191415     0.26200
H644        H  0.39433145  0.25735775  0.95119160     0.32100
H645        H  0.33313859  0.27567725  0.94671938     0.38100
H646        H  0.99380850  0.37186810  0.79786804     0.32500
H647        H  0.43015002  0.39847360  0.79879005     0.31400
H648        H  0.37379196  0.35337667  0.80378259     0.33100
H649        H  0.32390505  0.29886955  0.87177741     0.32000
H650        H  0.48872376  0.31488554  0.82009218     0.36000
H651        H  0.42966095  0.25314611  0.81860821     0.28800
H652        H  0.45466550  0.41599130  0.95598037     0.33000
H653        H  0.34072927  0.32555209  0.94078716     0.35900
H654        H  0.45978438  0.40622890  0.81232534     0.28500
H655        H  0.39626870  0.23099870  0.82088593     0.41300
H656        H  0.49446209  0.30369156  0.92680046     0.31400
H657        H  0.03478367  0.35818956  0.89038894     0.39000
H658        H  0.34192406  0.33233715  0.87642035     0.30900
H659        H  0.41961292  0.27299088  0.97233567     0.30900
H660        H  0.42859906  0.38554491  0.96356200     0.31200
Zr661      Zr  0.38812705  0.45117824  0.07966517     2.17500
O662        O  0.40500358  0.43541604  0.04014393    -0.51200
O663        O  0.42990919  0.49862982  0.08415020    -0.74400
O664        O  0.38490183  0.47566159  0.03814831    -0.81200
O665        O  0.41208545  0.41644747  0.13416202    -0.82900
O666        O  0.34033918  0.47167896  0.03703439    -0.78500
O667        O  0.42454618  0.43816237  0.09222033    -0.90200
O668        O  0.41405967  0.01394751  0.12393612    -0.76100
O669        O  0.36432406  0.47783821  0.08898901    -0.85600
O670        O  0.39381185  0.46182183  0.12780762    -0.85300
O671        O  0.33867506  0.42046762  0.06638913    -0.72100
O672        O  0.36641681  0.40615291  0.10376343    -0.84200
Zr673      Zr  0.29723708  0.41177996  0.14799954     2.26400
Zr674      Zr  0.31458424  0.44684404  0.07791515     2.06300
Zr675      Zr  0.37017275  0.41699126  0.15182762     2.10000
Zr676      Zr  0.37074594  0.48924498  0.13625676     1.78800
O677        O  0.36146686  0.36959038  0.16571037    -0.93000
O678        O  0.36448977  0.02457657  0.12694742    -0.40800
O679        O  0.34680512  0.44421008  0.16034435    -0.77400
O680        O  0.31994413  0.45836650  0.12587420    -0.96100
O681        O  0.29241864  0.40122623  0.10019760    -0.89400
O682        O  0.32121286  0.38509425  0.13910970    -0.92300
C683        C  0.43081701  0.01400858  0.10492670     1.01500
C684        C  0.42826638  0.42534423  0.11283937     1.14400
C685        C  0.36563123  0.48035222  0.02714654     1.05200
O686        O  0.31080260  0.49010624  0.07206718    -0.94400
O687        O  0.26689186  0.43751829  0.09107708    -0.90200
O688        O  0.25621703  0.41644039  0.13308800    -0.83300
C689        C  0.25006494  0.42626473  0.11176060     1.11800
O690        O  0.34105435  0.36152617  0.05584425    -0.96400
Zr691      Zr  0.31741601  0.37567101  0.09071456     1.88900
O692        O  0.26050044  0.36050024  0.14480285    -0.73100
O693        O  0.28373353  0.41893304  0.03971026    -0.52300
O694        O  0.28627086  0.35824685  0.05038245    -0.97000
O695        O  0.32164430  0.33420202  0.10482998    -0.54200
O696        O  0.27060403  0.34103088  0.10770753    -0.73600
C697        C  0.25451317  0.33969501  0.12783706     0.98800
O698        O  0.27145800  0.41903927  0.18593089    -0.62400
O699        O  0.40860096  0.44057343  0.18579540    -0.57200
O700        O  0.30591637  0.40607549  0.19617552    -0.93900
O701        O  0.35174867  0.41370899  0.19822359    -0.92300
O702        O  0.40104616  0.50747726  0.17700854    -0.92700
O703        O  0.35278285  0.50958478  0.17081040    -0.91400
C704        C  0.32810775  0.40934620  0.20950637     1.17600
H705        H  0.41394239  0.47223242  0.13307326     0.33600
H706        H  0.30966268  0.46838142  0.13070773     0.44400
H707        H  0.31294607  0.36764065  0.14987427     0.37900
H708        H  0.33749609  0.41679557  0.04684526     0.34400
H709        H  0.38124288  0.04072200  0.13635858     0.26200
H710        H  0.26745622  0.40172463  0.04833278     0.32100
H711        H  0.27566551  0.33693420  0.05203170     0.38100
H712        H  0.41103817  0.99087402  0.17771616     0.32500
H713        H  0.41317893  0.42553696  0.19144297     0.31400
H714        H  0.36922756  0.37249071  0.18461580     0.33100
H715        H  0.30483013  0.31728181  0.09635037     0.32000
H716        H  0.33760518  0.49257744  0.18069129     0.36000
H717        H  0.27069551  0.43670756  0.18148767     0.28800
H718        H  0.42148587  0.45332308  0.03274064     0.33000
H719        H  0.32617962  0.34214876  0.04930520     0.35900
H720        H  0.42584840  0.45473387  0.17543651     0.28500
H721        H  0.25120709  0.40300235  0.18457155     0.41300
H722        H  0.30941111  0.49638622  0.09091513     0.31400
H723        H  0.36993568  0.02716490  0.10727877     0.39000
H724        H  0.31738658  0.33201445  0.12474594     0.30900
H725        H  0.27506326  0.43042035  0.03315364     0.30900
H726        H  0.38957427  0.42936211  0.02617851     0.31200
Zr727      Zr  0.44204388  0.05029671  0.90450963     2.17500
O728        O  0.47891962  0.05814086  0.93836669    -0.51200
O729        O  0.43175945  0.00195965  0.89156905    -0.74400
O730        O  0.42141861  0.02632804  0.94830424    -0.81200
O731        O  0.49984391  0.09170186  0.85027073    -0.82900
O732        O  0.38031787  0.02815197  0.95602275    -0.78500
O733        O  0.49158977  0.06669949  0.89009610    -0.90200
O734        O  0.41211828  0.48942686  0.86910096    -0.76100
O735        O  0.39102422  0.02457703  0.89848680    -0.85600
O736        O  0.43416146  0.04416669  0.85609304    -0.85300
O737        O  0.42540987  0.08041479  0.92533415    -0.72100
O738        O  0.46432517  0.09781510  0.88521182    -0.84200
Zr739      Zr  0.38788629  0.09514699  0.85027754     2.26400
Zr740      Zr  0.37404381  0.05443846  0.91820518     2.06300
Zr741      Zr  0.45582587  0.09152546  0.83680024     2.10000
Zr742      Zr  0.38288109  0.01884205  0.85031103     1.78800
O743        O  0.49280003  0.14013021  0.82380709    -0.93000
O744        O  0.35160197  0.47861155  0.87017602    -0.40800
O745        O  0.40478154  0.06542912  0.83032535    -0.77400
O746        O  0.36449437  0.04765375  0.86983255    -0.96100
O747        O  0.39598240  0.10156952  0.89855601    -0.89400
O748        O  0.43907005  0.12174445  0.85606383    -0.92300
C749        C  0.42968978  0.48997142  0.88745467     1.01500
C750        C  0.50793936  0.08166165  0.87010161     1.14400
C751        C  0.39887898  0.02051950  0.96265493     1.05200
O752        O  0.32839771  0.00940685  0.92326575    -0.94400
O753        O  0.33618872  0.06667927  0.91097710    -0.90200
O754        O  0.34475971  0.09093672  0.87063084    -0.83300
C755        C  0.32992602  0.07968435  0.89241544     1.11800
O756        O  0.48624173  0.14213368  0.93731064    -0.95200
Zr757      Zr  0.44681666  0.12740493  0.90450665     1.88900
O758        O  0.40038742  0.14475877  0.85724805    -0.73100
O759        O  0.36812323  0.07491589  0.96099348    -0.52300
O760        O  0.43541316  0.14145598  0.94846726    -0.97000
O761        O  0.49228146  0.16893950  0.88983088    -0.54200
O762        O  0.43209446  0.16238250  0.89290164    -0.73600
C763        C  0.41580236  0.16443448  0.87475147     0.98800
O764        O  0.34822402  0.08045740  0.81747373    -0.62400
O765        O  0.47226434  0.07332777  0.79882692    -0.57200
O766        O  0.40273047  0.11064464  0.80317579    -0.93900
O767        O  0.43434580  0.09496558  0.79363832    -0.92300
O768        O  0.39459925  0.00619143  0.80582261    -0.92700
O769        O  0.34378231  0.00435836  0.81735221    -0.91400
C770        C  0.41673365  0.10360263  0.78631905     1.17600
H771        H  0.44291051  0.03380912  0.84799627     0.33600
H772        H  0.34393625  0.03826923  0.86647910     0.44400
H773        H  0.44749280  0.14007826  0.84673692     0.37900
H774        H  0.42970758  0.08259428  0.94475469     0.34400
H775        H  0.35173220  0.46240995  0.86028989     0.26200
H776        H  0.35133200  0.05864573  0.97013791     0.32100
H777        H  0.41606537  0.13937173  0.94586537     0.38100
H778        H  0.42507944  0.52624451  0.80421388     0.32500
H779        H  0.49285002  0.08806118  0.79608196     0.31400
H780        H  0.49203740  0.14013665  0.80349627     0.33100
H781        H  0.48708720  0.17771779  0.87465225     0.32000
H782        H  0.34589032  0.02276184  0.81067635     0.36000
H783        H  0.35232424  0.07075545  0.80213819     0.28800
H784        H  0.47452319  0.03867104  0.94431726     0.33000
H785        H  0.49160867  0.16197332  0.94320514     0.35900
H786        H  0.47269581  0.05632593  0.80619799     0.28500
H787        H  0.33095078  0.06446187  0.82631279     0.41300
H788        H  0.31855262  0.00619680  0.90533555     0.31400
H789        H  0.35594675  0.47638919  0.88945271     0.39000
H790        H  0.50304789  0.16047192  0.88083825     0.30900
H791        H  0.38495407  0.07863630  0.97242655     0.30900
H792        H  0.47482675  0.06682649  0.95458141     0.31200
C793        C  0.37220570  0.49725322  0.00151181    -0.16300
C794        C  0.39407025  0.00364954  0.98843280    -0.31400
H795        H  0.35481531  0.49962401  0.99270308     0.12800
H796        H  0.41041089  0.99836230  0.99464130     0.13300
C797        C  0.42459388  0.44370424  0.87126892    -0.16300
C798        C  0.43361651  0.46459761  0.89043564    -0.31400
H799        H  0.41395230  0.44529677  0.85291697     0.12800
H800        H  0.44503734  0.46359420  0.90844341     0.13300
C801        C  0.42589932  0.21170877  0.89298998    -0.16300
C802        C  0.41439238  0.19117941  0.87348765    -0.31400
H803        H  0.43658198  0.20882001  0.91064132     0.12800
H804        H  0.40306287  0.19375293  0.85620562     0.13300
C805        C  0.49741102  0.36613307  0.99281241    -0.16300
C806        C  0.01566238  0.39051247  0.00079071    -0.31400
H807        H  0.49713417  0.34818295  0.00348288     0.12800
H808        H  0.01294541  0.40784118  0.99250396     0.13300
C809        C  0.47516507  0.43215172  0.09587930    -0.16300
C810        C  0.45255446  0.41976327  0.11303565    -0.31400
H811        H  0.47606604  0.44690044  0.08014030     0.12800
H812        H  0.45240802  0.40583950  0.12929143     0.13300
C813        C  0.22192566  0.42509017  0.11025166    -0.16300
C814        C  0.20061552  0.41261278  0.12913427    -0.31400
H815        H  0.21872925  0.43510873  0.09226963     0.12800
H816        H  0.20332596  0.40219507  0.14704592     0.13300
C817        C  0.28646456  0.20668697  0.89424589    -0.16300
C818        C  0.30741698  0.21413458  0.87505151    -0.31400
H819        H  0.28949062  0.22128081  0.91118544     0.12800
H820        H  0.30467623  0.19923124  0.85849962     0.13300
C821        C  0.05062987  0.45082790  0.89268408    -0.16300
C822        C  0.07205375  0.46217675  0.87427965    -0.31400
H823        H  0.05057812  0.46391984  0.90986392     0.12800
H824        H  0.07163373  0.44936017  0.85665873     0.13300
C825        C  0.29419804  0.09330135  0.87743179    -0.16300
C826        C  0.30332471  0.08115092  0.89617812    -0.31400
H827        H  0.30716686  0.10364012  0.85932896     0.12800
H828        H  0.29040266  0.07100938  0.91435652     0.13300
C829        C  0.03711090  0.08271223  0.87522310    -0.16300
C830        C  0.04791631  0.07312685  0.89459950    -0.31400
H831        H  0.05009433  0.09412087  0.85744309     0.12800
H832        H  0.03458770  0.06075262  0.91185500     0.13300
C833        C  0.45987644  0.03927855  0.10279134    -0.16300
C834        C  0.47122151  0.05880066  0.12319305    -0.31400
H835        H  0.47256991  0.04122538  0.08458084     0.12800
H836        H  0.45870780  0.05636720  0.14167107     0.13300
C837        C  0.22695565  0.31234757  0.13130759    -0.16300
C838        C  0.21824253  0.29084522  0.11262717    -0.31400
H839        H  0.21324571  0.31026691  0.14870929     0.12800
H840        H  0.23186794  0.29330574  0.09501582     0.13300
C841        C  0.09488889  0.28966230  0.12662313    -0.16300
C842        C  0.08208024  0.29728614  0.10699122    -0.31400
H843        H  0.10564128  0.30400420  0.14389972     0.12800
H844        H  0.07201508  0.28325114  0.08935293     0.13300
C845        C  0.09357542  0.05148015  0.10531730    -0.16300
C846        C  0.10152807  0.03925262  0.12464350    -0.31400
H847        H  0.08148085  0.03879917  0.08757168     0.12800
H848        H  0.11263831  0.05158833  0.14290329     0.13300
C849        C  0.13580810  0.13621212  0.00831917    -0.16300
C850        C  0.12303039  0.11013641  0.99588681    -0.31400
H851        H  0.15582701  0.15335225  0.99967200     0.12800
H852        H  0.10291733  0.09275614  0.00410680     0.13300
C853        C  0.40505008  0.07991689  0.74154163    -0.16300
C854        C  0.41057238  0.10327324  0.75667612    -0.31400
H855        H  0.40565831  0.06210698  0.75161651     0.12800
H856        H  0.40842017  0.12072777  0.74787592     0.13300
C857        C  0.99741930  0.12139371  0.49208588    -0.16300
C858        C  0.48663304  0.09957447  0.50685685    -0.31400
H859        H  0.99384652  0.13867978  0.49926724     0.12800
H860        H  0.48777930  0.08130721  0.49837338     0.13300
C861        C  0.09549766  0.17289463  0.25835298    -0.16300
C862        C  0.09875926  0.19530415  0.24314619    -0.31400
H863        H  0.09093968  0.15295864  0.24798511     0.12800
H864        H  0.10505314  0.21602910  0.25274833     0.13300
C865        C  0.17345881  0.08004686  0.74783265    -0.16300
C866        C  0.19708761  0.08610934  0.76262562    -0.31400
H867        H  0.15294808  0.07246379  0.75844596     0.12800
H868        H  0.21822722  0.09573618  0.75291249     0.13300
C869        C  0.29717705  0.08098004  0.63108809    -0.16300
C870        C  0.27606607  0.06973876  0.61199388    -0.31400
H871        H  0.29457491  0.09097769  0.64957106     0.12800
H872        H  0.27913185  0.06035538  0.59329243     0.13300
C873        C  0.02663618  0.06699147  0.60846441    -0.16300
C874        C  0.04795167  0.07902117  0.62706718    -0.31400
H875        H  0.02723020  0.05320540  0.59224940     0.12800
H876        H  0.04683734  0.09203704  0.64378063     0.13300
C877        C  0.11870085  0.00383816  0.50835242    -0.16300
C878        C  0.10538448  0.48312649  0.48852374    -0.31400
H879        H  0.09838616  0.00009644  0.49963936     0.12800
H880        H  0.08800441  0.48631028  0.49615634     0.13300
C881        C  0.08626660  0.03233041  0.40327892    -0.16300
C882        C  0.09440821  0.05282412  0.38423427    -0.31400
H883        H  0.07317271  0.03217546  0.42051777     0.12800
H884        H  0.10686201  0.05238090  0.36668640     0.13300
C885        C  0.08563846  0.29494687  0.36729698    -0.16300
C886        C  0.07248332  0.27415603  0.38641577    -0.31400
H887        H  0.09736708  0.29210363  0.35039208     0.12800
H888        H  0.06150972  0.27752723  0.40368520     0.13300
C889        C  0.09576293  0.39491515  0.25365910    -0.16300
C890        C  0.09431311  0.41491509  0.23827964    -0.31400
H891        H  0.10292059  0.38085231  0.24472075     0.12800
H892        H  0.08901726  0.42999657  0.24822995     0.13300
C893        C  0.41686679  0.32008064  0.73911749    -0.16300
C894        C  0.40046735  0.29945530  0.75730235    -0.31400
H895        H  0.43227206  0.34147127  0.74687946     0.12800
H896        H  0.38628349  0.27746400  0.75023842     0.13300
C897        C  0.28543500  0.20713970  0.61908186    -0.16300
C898        C  0.27709697  0.18638228  0.63841100    -0.31400
H899        H  0.27106499  0.20390850  0.60199794     0.12800
H900        H  0.29161907  0.18875578  0.65506848     0.13300
C901        C  0.03922771  0.45422564  0.58732251    -0.16300
C902        C  0.02958913  0.42939849  0.60082748    -0.31400
H903        H  0.02474788  0.45719956  0.57384592     0.12800
H904        H  0.04413159  0.42700862  0.61475748     0.13300
C905        C  0.40754435  0.20570072  0.62937646    -0.16300
C906        C  0.41851190  0.19599409  0.60953731    -0.31400
H907        H  0.39803796  0.19311692  0.64782114     0.12800
H908        H  0.42730517  0.20835091  0.59083674     0.13300
C909        C  0.41628723  0.44632621  0.59596112    -0.16300
C910        C  0.41023733  0.45926776  0.61656490    -0.31400
H911        H  0.42608124  0.45807212  0.57717106     0.12800
H912        H  0.40132766  0.44754809  0.63558137     0.13300
C913        C  0.30455595  0.40342372  0.25564439    -0.16300
C914        C  0.32781572  0.40966033  0.23991991    -0.31400
H915        H  0.28339919  0.39539347  0.24638497     0.12800
H916        H  0.34829563  0.41590147  0.24997775     0.13300
C917        C  0.37799698  0.37570887  0.48761174    -0.16300
C918        C  0.36466081  0.35045500  0.50126989    -0.31400
H919        H  0.39875363  0.39288707  0.49496237     0.12800
H920        H  0.34389869  0.33340010  0.49377958     0.13300
C921        C  0.44099147  0.01952244  0.37302995    -0.16300
C922        C  0.46040482  0.03162428  0.39334644    -0.31400
H923        H  0.44223497  0.03242279  0.35536466     0.12800
H924        H  0.45965575  0.01859953  0.41071140     0.13300
C925        C  0.21315804  0.28322165  0.38850138    -0.16300
C926        C  0.19172191  0.27418630  0.36972041    -0.31400
H927        H  0.21032934  0.27012620  0.40647665     0.12800
H928        H  0.19424229  0.28739007  0.35191466     0.13300
C929        C  0.45209675  0.40928605  0.38540904    -0.16300
C930        C  0.46297502  0.39984275  0.36568211    -0.31400
H931        H  0.46539142  0.42139483  0.40284918     0.12800
H932        H  0.45003272  0.38856349  0.34778537     0.13300
C933        C  0.21097873  0.40156545  0.37235520    -0.16300
C934        C  0.20195347  0.41329777  0.39200731    -0.31400
H935        H  0.19736544  0.39073604  0.35469740     0.12800
H936        H  0.21527168  0.42352706  0.40998527     0.13300
Zr937      Zr  0.38453261  0.92250205  0.40719757     2.17500
O938        O  0.41462007  0.95945688  0.44076638    -0.51200
O939        O  0.42317844  0.91269986  0.39481019    -0.74400
O940        O  0.38699345  0.90222506  0.45133025    -0.81200
O941        O  0.40041012  0.98053062  0.35278433    -0.82900
O942        O  0.34439561  0.86066413  0.45813933    -0.78500
O943        O  0.41626038  0.97270871  0.39341830    -0.90200
O944        O  0.40715876  0.87766999  0.36191703    -0.76100
O945        O  0.35921395  0.87146643  0.40067875    -0.85600
O946        O  0.38336507  0.91461871  0.35884808    -0.85300
O947        O  0.33742215  0.90539182  0.42741188    -0.72100
O948        O  0.35926007  0.94461562  0.38772691    -0.84200
Zr949      Zr  0.28581298  0.86917846  0.35129062     2.26400
Zr950      Zr  0.31196293  0.85413336  0.41954025     2.06300
Zr951      Zr  0.35770964  0.93613262  0.33930869     2.10000
Zr952      Zr  0.35752432  0.86353119  0.35249638     1.78800
O953        O  0.34799406  0.97377182  0.32402321    -0.93000
O954        O  0.35621404  0.81986745  0.36876348    -0.40800
O955        O  0.33256469  0.88521133  0.33201828    -0.77400
O956        O  0.30999739  0.84563475  0.37096481    -0.96100
O957        O  0.28691018  0.87634514  0.39980748    -0.89400
O958        O  0.31060790  0.92010545  0.35795117    -0.92300
C959        C  0.42666890  0.89596548  0.37803638     1.01500
C960        C  0.41785053  0.98890339  0.37321992     1.14400
C961        C  0.37034416  0.87964272  0.46541060     1.05200
O962        O  0.31073509  0.80837751  0.42604284    -0.94400
O963        O  0.26233825  0.81560163  0.40974542    -0.90200
O964        O  0.24746589  0.82507248  0.36934786    -0.83300
C965        C  0.24352786  0.80965145  0.39060633     1.11800
O966        O  0.33637060  0.96476577  0.44119827    -0.96400
Zr967      Zr  0.31210151  0.92705358  0.40656677     1.88900
O968        O  0.24939601  0.88352073  0.35747473    -0.73100
O969        O  0.28432206  0.84837685  0.46131284    -0.52300
O970        O  0.28494605  0.91583955  0.44943568    -0.97000
O971        O  0.31752858  0.97296106  0.39163827    -0.54200
O972        O  0.26291072  0.91355163  0.39450063    -0.73600
C973        C  0.24497566  0.89856250  0.37548574     0.98800
O974        O  0.25536603  0.82779532  0.32189635    -0.62400
O975        O  0.39531084  0.95040382  0.30449518    -0.57200
O976        O  0.28783177  0.88203954  0.30289011    -0.93900
O977        O  0.33401448  0.91773084  0.29535069    -0.92300
O978        O  0.38088025  0.87493122  0.30764146    -0.92700
O979        O  0.33258767  0.82283137  0.32098047    -0.91400
C980        C  0.30866484  0.89883961  0.28697507     1.17600
H981        H  0.40253138  0.92348698  0.35095584     0.33600
H982        H  0.29890672  0.82513242  0.36726454     0.44400
H983        H  0.30114101  0.92900959  0.34860804     0.37900
H984        H  0.33927952  0.90951329  0.44688185     0.34400
H985        H  0.36963500  0.81729902  0.35651211     0.26200
H986        H  0.28717027  0.83466912  0.47263209     0.32100
H987        H  0.26847122  0.89601101  0.44682065     0.38100
H988        H  0.36663716  0.87557078  0.29511437     0.32500
H989        H  0.39190896  0.93202842  0.29611964     0.31400
H990        H  0.35478979  0.97749795  0.30474158     0.33100
H991        H  0.30051482  0.96780603  0.37988743     0.32000
H992        H  0.31389490  0.82184948  0.31720411     0.36000
H993        H  0.24233956  0.83290037  0.31206018     0.28800
H994        H  0.42935316  0.95453836  0.44674771     0.33000
H995        H  0.32304905  0.97221209  0.44518093     0.35900
H996        H  0.39003345  0.95977991  0.28993773     0.28500
H997        H  0.26838397  0.82730677  0.30760897     0.41300
H998        H  0.30655634  0.79924306  0.40761560     0.31400
H999        H  0.36619806  0.82530912  0.38674273     0.39000
H1000       H  0.33410326  0.98083329  0.37875389     0.30900
H1001       H  0.29515240  0.86711256  0.47107910     0.30900
H1002       H  0.40211196  0.95604915  0.45701567     0.31200
Zr1003     Zr  0.42900982  0.86712420  0.58740404     2.17500
O1004       O  0.46354180  0.88533852  0.54954921    -0.51200
O1005       O  0.42079329  0.90736693  0.59174222    -0.74400
O1006       O  0.40300529  0.86464629  0.54423692    -0.81200
O1007       O  0.48662843  0.89107853  0.64394064    -0.82900
O1008       O  0.36143016  0.82102638  0.54379025    -0.78500
O1009       O  0.47812013  0.90405063  0.60195947    -0.90200
O1010       O  0.38684074  0.89577170  0.62513694    -0.76100
O1011       O  0.37830227  0.84295364  0.59619557    -0.85600
O1012       O  0.42317771  0.87193210  0.63566638    -0.85300
O1013       O  0.41075475  0.81785999  0.57319085    -0.72100
O1014       O  0.45178802  0.84482300  0.61171455    -0.84200
Zr1015     Zr  0.37715167  0.77524725  0.65407258     2.26400
Zr1016     Zr  0.36012454  0.79361275  0.58363396     2.06300
Zr1017     Zr  0.44422065  0.84810641  0.65991280     2.10000
Zr1018     Zr  0.37263303  0.84809241  0.64377467     1.78800
O1019       O  0.48312865  0.83996470  0.67457193    -0.93000
O1020       O  0.32636273  0.84245067  0.62956169    -0.40800
O1021       O  0.39361995  0.82418954  0.66788103    -0.77400
O1022       O  0.35352332  0.79804659  0.63159414    -0.96100
O1023       O  0.38325101  0.77135465  0.60614529    -0.89400
O1024       O  0.42796077  0.79944826  0.64606187    -0.92300
C1025       C  0.40455645  0.91295168  0.60693035     1.01500
C1026       C  0.49430775  0.90772783  0.62304230     1.14400
C1027       C  0.37860646  0.84580346  0.53335427     1.05200
O1028       O  0.31217701  0.78738563  0.57660674    -0.94400
O1029       O  0.32305892  0.74519054  0.59688996    -0.90200
O1030       O  0.33335995  0.73342447  0.63853916    -0.83300
C1031       C  0.31768077  0.72781478  0.61704951     1.11800
O1032       O  0.47156061  0.81925739  0.56312833    -0.96400
Zr1033     Zr  0.43370204  0.79598339  0.59765663     1.88900
O1034       O  0.38918964  0.73672402  0.64932773    -0.73100
O1035       O  0.35790666  0.76466108  0.54385359    -0.52300
O1036       O  0.42293718  0.76631538  0.55636799    -0.97000
O1037       O  0.47791582  0.79820140  0.61396264    -0.54200
O1038       O  0.41682533  0.74679339  0.61089771    -0.73600
C1039       C  0.40213364  0.73016733  0.63064529     0.98800
O1040       O  0.33772537  0.75421400  0.68759474    -0.62400
O1041       O  0.45921335  0.88593081  0.69472290    -0.57200
O1042       O  0.39512858  0.78042537  0.70097640    -0.93900
O1043       O  0.42614257  0.82855249  0.70576091    -0.92300
O1044       O  0.38795919  0.87886156  0.68450947    -0.92700
O1045       O  0.33615151  0.83194480  0.67981585    -0.91400
C1046       C  0.41007895  0.80311742  0.71572944     1.17600
H1047       H  0.43239115  0.89198227  0.64120210     0.33600
H1048       H  0.33313141  0.78761176  0.63594650     0.44400
H1049       H  0.43709250  0.79094849  0.65659386     0.37900
H1050       H  0.41361082  0.81697317  0.55367348     0.34400
H1051       H  0.32659030  0.86003206  0.63651014     0.26200
H1052       H  0.35217291  0.74534344  0.55132490     0.32100
H1053       H  0.40235499  0.75123843  0.55824568     0.38100
H1054       H  0.39660671  0.87039905  0.69663795     0.32500
H1055       H  0.48019599  0.89353098  0.69730320     0.31400
H1056       H  0.48117688  0.83824340  0.69479744     0.33100
H1057       H  0.47155636  0.78272316  0.62781810     0.32000
H1058       H  0.33523166  0.81423738  0.68707554     0.36000
H1059       H  0.34378174  0.76816853  0.70304565     0.28800
H1060       H  0.45965658  0.89928779  0.53987228     0.33000
H1061       H  0.47908494  0.80589324  0.55983642     0.35900
H1062       H  0.45788805  0.90179626  0.68574591     0.28500
H1063       H  0.32163411  0.75562221  0.67911068     0.41300
H1064       H  0.30587432  0.78996155  0.59504423     0.31400
H1065       H  0.32793543  0.84485370  0.60937824     0.39000
H1066       H  0.48788549  0.81639033  0.62470370     0.30900
H1067       H  0.34075169  0.76179343  0.53345983     0.30900
H1068       H  0.45698167  0.86879173  0.53669712     0.31200
Zr1069     Zr  0.07111944  0.93945430  0.42091671     2.17500
O1070       O  0.03810895  0.92266387  0.45991246    -0.51200
O1071       O  0.07690122  0.98662721  0.41636379    -0.74400
O1072       O  0.09829640  0.96703605  0.46110451    -0.81200
O1073       O  0.01244268  0.90782560  0.36767852    -0.82900
O1074       O  0.13870002  0.96295081  0.46338765    -0.78500
O1075       O  0.02366589  0.93064167  0.40930029    -0.90200
O1076       O  0.10085090  0.50319126  0.37084467    -0.76100
O1077       O  0.12151974  0.96547275  0.41190412    -0.85600
O1078       O  0.07537321  0.94876948  0.37263727    -0.85300
O1079       O  0.08838203  0.90826452  0.43586080    -0.72100
O1080       O  0.04623663  0.89361601  0.39785913    -0.84200
Zr1081     Zr  0.12001990  0.89611266  0.35547354     2.26400
Zr1082     Zr  0.13882653  0.93386978  0.42487874     2.06300
Zr1083     Zr  0.05282403  0.90308865  0.34958390     2.10000
Zr1084     Zr  0.12582207  0.97499681  0.36432298     1.78800
O1085       O  0.01269859  0.85589695  0.33678553    -0.93000
O1086       O  0.16054950  0.51065374  0.37537704    -0.40800
O1087       O  0.10370889  0.92883359  0.34162986    -0.77400
O1088       O  0.14471762  0.94362207  0.37656640    -0.96100
O1089       O  0.11465532  0.88722947  0.40342840    -0.89400
O1090       O  0.06915697  0.87072736  0.36358697    -0.92300
C1091       C  0.08130106  0.50223037  0.38703374     1.01500
C1092       C  0.00656327  0.91836007  0.38904462     1.14400
C1093       C  0.12238338  0.97258177  0.47221616     1.05200
O1094       O  0.18762472  0.97443300  0.43104426    -0.94400
O1095       O  0.17688232  0.92360876  0.41338396    -0.90200
O1096       O  0.16639421  0.90268211  0.37109338    -0.83300
C1097       C  0.18245139  0.91246149  0.39253433     1.11800
O1098       O  0.02741518  0.84779064  0.44796610    -0.96400
Zr1099     Zr  0.06400798  0.86275615  0.41209758     1.88900
O1100       O  0.10459909  0.84446761  0.35975189    -0.73100
O1101       O  0.14069786  0.90784710  0.46495781    -0.52300
O1102       O  0.07776495  0.84696234  0.45327794    -0.97000
O1103       O  0.01705161  0.82220342  0.39905149    -0.54200
O1104       O  0.07411455  0.82603182  0.39610441    -0.73600
C1105       C  0.08887040  0.82385092  0.37643554     0.98800
O1106       O  0.15227816  0.90018005  0.31791831    -0.62400
O1107       O  0.03625241  0.92305656  0.31375495    -0.57200
O1108       O  0.10515398  0.88845574  0.30741374    -0.93900
O1109       O  0.06971296  0.90001637  0.30326336    -0.92300
O1110       O  0.11278751  0.98988013  0.32208794    -0.92700
O1111       O  0.16367812  0.99434074  0.32946778    -0.91400
C1112       C  0.08803552  0.89343765  0.29299712     1.17600
H1113       H  0.06606709  0.95948035  0.36715207     0.33600
H1114       H  0.16513004  0.95323389  0.37192022     0.44400
H1115       H  0.05965327  0.85291583  0.35316012     0.37900
H1116       H  0.08572466  0.90530021  0.45544684     0.34400
H1117       H  0.16212075  0.52798146  0.36645710     0.26200
H1118       H  0.14147674  0.89101434  0.45732664     0.32100
H1119       H  0.06594908  0.82561430  0.45280718     0.38100
H1120       H  0.09590933  0.46989783  0.30194649     0.32500
H1121       H  0.01491388  0.91079802  0.31359355     0.31400
H1122       H  0.99969928  0.84975737  0.35295338     0.33100
H1123       H  0.01480178  0.80586790  0.41035629     0.32000
H1124       H  0.16811009  0.97859952  0.32589885     0.36000
H1125       H  0.17023881  0.91888321  0.32076153     0.28800
H1126       H  0.03902423  0.94030160  0.46762854     0.33000
H1127       H  0.01958015  0.86104499  0.44620688     0.35900
H1128       H  0.03996368  0.94195594  0.32103266     0.28500
H1129       H  0.15773440  0.88524284  0.32130873     0.41300
H1130       H  0.18609775  0.99171369  0.42681137     0.31400
H1131       H  0.15530505  0.51199059  0.39464404     0.39000
H1132       H  0.01962279  0.81699412  0.38011852     0.30900
H1133       H  0.16020580  0.92040794  0.47276452     0.30900
H1134       H  0.04767452  0.91683791  0.47381044     0.31200
Zr1135     Zr  0.11869053  0.54837115  0.57780233     2.17500
O1136       O  0.10704648  0.56832802  0.53821968    -0.51200
O1137       O  0.07515634  0.50226127  0.57970614    -0.74400
O1138       O  0.11990054  0.52132391  0.53668715    -0.81200
O1139       O  0.09573834  0.58433342  0.63284957    -0.82900
O1140       O  0.16275681  0.52159961  0.53734790    -0.78500
O1141       O  0.08342683  0.56344175  0.59033020    -0.90200
O1142       O  0.08170037  0.97810298  0.62480409    -0.76100
O1143       O  0.13969151  0.51914848  0.58724423    -0.85600
O1144       O  0.11077451  0.53682601  0.62567234    -0.85300
O1145       O  0.16894584  0.57685693  0.56597345    -0.72100
O1146       O  0.14187735  0.59273058  0.60347936    -0.84200
Zr1147     Zr  0.20628737  0.58116986  0.64897689     2.26400
Zr1148     Zr  0.19002497  0.54780669  0.57748917     2.06300
Zr1149     Zr  0.13575579  0.58103364  0.65134913     2.10000
Zr1150     Zr  0.13092674  0.50690362  0.63408293     1.78800
O1151       O  0.14633362  0.62887905  0.66657017    -0.93000
O1152       O  0.13366026  0.96950706  0.62209704    -0.40800
O1153       O  0.15594940  0.55107282  0.65978981    -0.77400
O1154       O  0.18215485  0.53530481  0.62501073    -0.96100
O1155       O  0.21363623  0.59270300  0.60142816    -0.89400
O1156       O  0.18555206  0.61082445  0.64010477    -0.92300
C1157       C  0.06430891  0.97954835  0.60740193     1.01500
C1158       C  0.07996889  0.57643775  0.61126161     1.14400
C1159       C  0.13806584  0.51427147  0.52670294     1.05200
O1160       O  0.19550782  0.50585178  0.56888930    -0.94400
O1161       O  0.23544985  0.55290348  0.59329613    -0.90200
O1162       O  0.24624463  0.57449310  0.63532421    -0.83300
C1163       C  0.25183512  0.56343925  0.61441147     1.11800
O1164       O  0.17311909  0.64025075  0.55722855    -0.96400
Zr1165     Zr  0.19161389  0.62092702  0.59195559     1.88900
O1166       O  0.24621346  0.63131256  0.64808370    -0.73100
O1167       O  0.22207997  0.57579869  0.54013718    -0.52300
O1168       O  0.22395401  0.63804159  0.55240047    -0.97000
O1169       O  0.18991707  0.66353696  0.60765149    -0.54200
O1170       O  0.23889969  0.65128685  0.61016626    -0.73600
C1171       C  0.25399176  0.65197632  0.63074837     0.98800
O1172       O  0.22455664  0.56449389  0.68633325    -0.62400
O1173       O  0.09544139  0.55926985  0.68360920    -0.57200
O1174       O  0.19836228  0.58892548  0.69685978    -0.93900
O1175       O  0.15279732  0.58213232  0.69823582    -0.92300
O1176       O  0.09594601  0.49073740  0.67147224    -0.92700
O1177       O  0.14329033  0.48453935  0.67105181    -0.91400
C1178       C  0.17600517  0.58578207  0.70992702     1.17600
H1179       H  0.09040986  0.52698465  0.63011187     0.33600
H1180       H  0.19112355  0.52405624  0.62973762     0.44400
H1181       H  0.19441118  0.62822059  0.65115654     0.37900
H1182       H  0.17102741  0.58099535  0.54654336     0.34400
H1183       H  0.11798271  0.95220921  0.63120101     0.26200
H1184       H  0.24084680  0.58875254  0.54912781     0.32100
H1185       H  0.23584237  0.65921574  0.55505461     0.38100
H1186       H  0.09909215  0.00771086  0.69014504     0.32500
H1187       H  0.09072933  0.57460929  0.68785939     0.31400
H1188       H  0.13064814  0.62528094  0.67965983     0.33100
H1189       H  0.20568759  0.67313769  0.62126673     0.32000
H1190       H  0.16427758  0.49752641  0.67402962     0.36000
H1191       H  0.22292200  0.54614307  0.67976929     0.28800
H1192       H  0.08797553  0.55263187  0.53189120     0.33000
H1193       H  0.18848564  0.66054194  0.55434452     0.35900
H1194       H  0.07873535  0.54476971  0.67280888     0.28500
H1195       H  0.24559461  0.57833610  0.68745903     0.41300
H1196       H  0.18821492  0.49417156  0.58579296     0.31400
H1197       H  0.12690330  0.96807537  0.60294356     0.39000
H1198       H  0.17193037  0.65577071  0.61862131     0.30900
H1199       H  0.22543586  0.56175301  0.52971897     0.30900
H1200       H  0.12076287  0.56987492  0.52366707     0.31200
Zr1201     Zr  0.05518343  0.60928403  0.40881844     2.17500
O1202       O  0.06992816  0.58847069  0.44548470    -0.51200
O1203       O  0.00802088  0.56814468  0.39951651    -0.74400
O1204       O  0.02851872  0.60448138  0.45076016    -0.81200
O1205       O  0.09680062  0.59285718  0.35419945    -0.82900
O1206       O  0.02556663  0.64537353  0.45525872    -0.78500
O1207       O  0.07057083  0.57578004  0.39351706    -0.90200
O1208       O  0.48710068  0.57966186  0.36931120    -0.76100
O1209       O  0.02678343  0.63162099  0.40128145    -0.85600
O1210       O  0.04856972  0.60848216  0.36043613    -0.85300
O1211       O  0.08228502  0.65686745  0.42821713    -0.72100
O1212       O  0.10255453  0.63513215  0.38927371    -0.84200
Zr1213     Zr  0.09612824  0.70591158  0.35034709     2.26400
Zr1214     Zr  0.05436130  0.67971329  0.41874004     2.06300
Zr1215     Zr  0.09577810  0.63568016  0.34085923     2.10000
Zr1216     Zr  0.02030949  0.63098376  0.35324247     1.78800
O1217       O  0.14512454  0.64898268  0.32831795    -0.93000
O1218       O  0.47704710  0.63008187  0.37018327    -0.40800
O1219       O  0.06730163  0.65777296  0.33344242    -0.77400
O1220       O  0.04776221  0.68008792  0.36983355    -0.96100
O1221       O  0.10175663  0.70603031  0.39900556    -0.89400
O1222       O  0.12456296  0.68361136  0.35847214    -0.92300
C1223       C  0.48766135  0.56170428  0.38642094     1.01500
C1224       C  0.08578444  0.57446615  0.37360503     1.14400
C1225       C  0.01959907  0.61988868  0.46303142     1.05200
O1226       O  0.01090895  0.68304512  0.42585881    -0.94400
O1227       O  0.06353301  0.72853397  0.40925883    -0.90200
O1228       O  0.08345159  0.74113411  0.36667962    -0.83300
C1229       C  0.07360835  0.74605620  0.38885858     1.11800
O1230       O  0.14303759  0.66169449  0.44436197    -0.96400
Zr1231     Zr  0.12910721  0.68286573  0.40746102     1.88900
O1232       O  0.14694584  0.74277486  0.35786169    -0.73100
O1233       O  0.07649519  0.70597905  0.46108106    -0.52300
O1234       O  0.14143974  0.71286998  0.44863353    -0.97000
O1235       O  0.17238380  0.68006472  0.39687954    -0.54200
O1236       O  0.16423293  0.73096826  0.39508137    -0.73600
C1237       C  0.16661147  0.74807606  0.37583871     0.98800
O1238       O  0.10335409  0.74181396  0.31576318    -0.62400
O1239       O  0.07779208  0.60056426  0.30334351    -0.57200
O1240       O  0.09538911  0.69652512  0.30028085    -0.93900
O1241       O  0.09761957  0.65534082  0.29582875    -0.92300
O1242       O  0.00586611  0.60263945  0.31096595    -0.92700
O1243       O  0.00367648  0.64929906  0.31606078    -0.91400
C1244       C  0.09612523  0.67661344  0.28566811     1.17600
H1245       H  0.03903559  0.58900418  0.35322809     0.33600
H1246       H  0.03715422  0.68987716  0.36567648     0.44400
H1247       H  0.14304197  0.69349146  0.34924069     0.37900
H1248       H  0.08430365  0.65565201  0.44779178     0.34400
H1249       H  0.46104609  0.61504503  0.35905533     0.26200
H1250       H  0.06237195  0.71113917  0.46858043     0.32100
H1251       H  0.16269488  0.72180970  0.45039944     0.38100
H1252       H  0.52561152  0.60609905  0.30345749     0.32500
H1253       H  0.09377928  0.59680338  0.29904720     0.31400
H1254       H  0.15347577  0.64612566  0.34531634     0.33100
H1255       H  0.18742922  0.69428499  0.40938177     0.32000
H1256       H  0.02160260  0.66546029  0.30827911     0.36000
H1257       H  0.08487329  0.74191681  0.31461886     0.28800
H1258       H  0.05180960  0.57232647  0.45298560     0.33000
H1259       H  0.13728608  0.64195843  0.43780517     0.35900
H1260       H  0.06243773  0.58235178  0.31143645     0.28500
H1261       H  0.11731888  0.76078847  0.32386703     0.41300
H1262       H  0.99479858  0.66281053  0.42585887     0.31400
H1263       H  0.47336865  0.62199705  0.38895825     0.39000
H1264       H  0.17851088  0.68872237  0.37844035     0.30900
H1265       H  0.07565699  0.69128576  0.47390846     0.30900
H1266       H  0.07750245  0.60327087  0.46025083     0.31200
Zr1267     Zr  0.43903277  0.55352220  0.57916016     2.17500
O1268       O  0.42408360  0.51998913  0.54047216    -0.51200
O1269       O  0.48702321  0.56011609  0.58219948    -0.74400
O1270       O  0.46306992  0.58110332  0.53688777    -0.81200
O1271       O  0.40947393  0.49799237  0.63786089    -0.82900
O1272       O  0.45648232  0.62003430  0.53520843    -0.78500
O1273       O  0.42593793  0.50438061  0.59364099    -0.90200
O1274       O  0.01125869  0.59647632  0.61486094    -0.76100
O1275       O  0.46324970  0.60453241  0.58492403    -0.85600
O1276       O  0.45345152  0.56237227  0.62642345    -0.85300
O1277       O  0.40449161  0.56798164  0.56681465    -0.72100
O1278       O  0.39634058  0.53067434  0.60717212    -0.84200
Zr1279     Zr  0.40014292  0.60550917  0.64726221     2.26400
Zr1280     Zr  0.42863533  0.61920967  0.57468901     2.06300
Zr1281     Zr  0.41081862  0.54138638  0.65431687     2.10000
Zr1282     Zr  0.47882289  0.61333920  0.63104084     1.78800
O1283       O  0.36774319  0.50128275  0.67460891    -0.93000
O1284       O  0.01981994  0.65643815  0.61580025    -0.40800
O1285       O  0.43594223  0.59250115  0.65909623    -0.77400
O1286       O  0.44462621  0.62932348  0.62130028    -0.96100
O1287       O  0.38522636  0.59568047  0.60066023    -0.89400
O1288       O  0.37560135  0.55439411  0.64234303    -0.92300
C1289       C  0.01025312  0.57831911  0.59662983     1.01500
C1290       C  0.41573135  0.48921279  0.61567957     1.14400
C1291       C  0.46674387  0.60460590  0.52562400     1.05200
O1292       O  0.46152296  0.66800992  0.55879963    -0.94400
O1293       O  0.41977843  0.65796137  0.58958412    -0.90200
O1294       O  0.40126795  0.64915303  0.63282366    -0.83300
C1295       C  0.40996287  0.66443297  0.61103368     1.11800
O1296       O  0.34493879  0.50212139  0.56569315    -0.96400
Zr1297     Zr  0.36201582  0.54468094  0.59513318     1.88900
O1298       O  0.34901373  0.59203811  0.64550862    -0.73100
O1299       O  0.39477707  0.61180053  0.53790719    -0.52300
O1300       O  0.33969354  0.55114789  0.55425511    -0.97000
O1301       O  0.32313643  0.50123371  0.61624194    -0.54200
O1302       O  0.32829392  0.55875366  0.61137717    -0.73600
C1303       C  0.32758220  0.57549431  0.62989559     0.98800
O1304       O  0.41842497  0.64360023  0.68226783    -0.62400
O1305       O  0.44164450  0.53296679  0.68531330    -0.57200
O1306       O  0.38685171  0.58786437  0.69367083    -0.93900
O1307       O  0.40851403  0.56096720  0.69944430    -0.92300
O1308       O  0.50130248  0.60636668  0.67146797    -0.92700
O1309       O  0.50208800  0.65499572  0.66164683    -0.91400
C1310       C  0.39716745  0.57570704  0.70879162     1.17600
H1311       H  0.46511494  0.55396267  0.63152856     0.33600
H1312       H  0.45409068  0.64990039  0.62460923     0.44400
H1313       H  0.35898224  0.54532652  0.65433371     0.37900
H1314       H  0.39931798  0.56360251  0.54767846     0.34400
H1315       H  0.03702261  0.65667608  0.62367490     0.26200
H1316       H  0.38065154  0.61644759  0.54632882     0.32100
H1317       H  0.31866224  0.54067656  0.55815853     0.38100
H1318       H  0.97960490  0.59215630  0.68754078     0.32500
H1319       H  0.42798741  0.51705964  0.69732315     0.31400
H1320       H  0.36221056  0.50987641  0.68988896     0.33100
H1321       H  0.31480095  0.50807516  0.63066010     0.32000
H1322       H  0.48586255  0.65545204  0.67112957     0.36000
H1323       H  0.42950864  0.63862177  0.69521464     0.28800
H1324       H  0.44236159  0.52255147  0.53259670     0.33000
H1325       H  0.32508830  0.49687769  0.56006936     0.35900
H1326       H  0.45077473  0.52429723  0.67389291     0.28500
H1327       H  0.43361762  0.66116154  0.67308887     0.41300
H1328       H  0.47949372  0.67423893  0.56941331     0.31400
H1329       H  0.02051085  0.65245183  0.59600465     0.39000
H1330       H  0.33315967  0.49286634  0.62651523     0.30900
H1331       H  0.40600018  0.62784255  0.52499773     0.30900
H1332       H  0.41675502  0.52821073  0.52659623     0.31200
Zr1333     Zr  0.07007635  0.62421415  0.08065604     2.17500
O1334       O  0.03580766  0.60629773  0.04268941    -0.51200
O1335       O  0.07815742  0.58416823  0.08555918    -0.74400
O1336       O  0.09763993  0.62403318  0.03887036    -0.81200
O1337       O  0.01358779  0.60052563  0.13929934    -0.82900
O1338       O  0.13803760  0.66847966  0.03750239    -0.78500
O1339       O  0.02110884  0.58779042  0.09645296    -0.90200
O1340       O  0.11326432  0.59714176  0.11789691    -0.76100
O1341       O  0.12089504  0.64995740  0.08787371    -0.85600
O1342       O  0.07773818  0.62078994  0.12870142    -0.85300
O1343       O  0.08627951  0.67290695  0.06616985    -0.72100
O1344       O  0.04736346  0.64601069  0.10634862    -0.84200
Zr1345     Zr  0.12200101  0.71727702  0.14663837     2.26400
Zr1346     Zr  0.13729041  0.69856152  0.07490542     2.06300
Zr1347     Zr  0.05639832  0.64386762  0.15425622     2.10000
Zr1348     Zr  0.12868000  0.64582977  0.13488330     1.78800
O1349       O  0.01652061  0.65039315  0.16974647    -0.93000
O1350       O  0.17225454  0.65035065  0.11377687    -0.40800
O1351       O  0.10728734  0.66887646  0.16053603    -0.77400
O1352       O  0.14595996  0.69529699  0.12260168    -0.96100
O1353       O  0.11421813  0.72058019  0.09897993    -0.89400
O1354       O  0.07111374  0.69188481  0.14034698    -0.92300
C1355       C  0.09491040  0.57926005  0.10039785     1.01500
C1356       C  0.00539029  0.58401737  0.11807936     1.14400
C1357       C  0.12225135  0.64271474  0.02811388     1.05200
O1358       O  0.18519308  0.70911801  0.05999539    -0.94400
O1359       O  0.17638896  0.74569637  0.08925142    -0.90200
O1360       O  0.16613314  0.75803543  0.13091070    -0.83300
C1361       C  0.18221688  0.76296358  0.10977990     1.11800
O1362       O  0.02377773  0.67137636  0.05944481    -0.96400
Zr1363     Zr  0.06331948  0.69426148  0.09237138     1.88900
O1364       O  0.10818185  0.75466711  0.14303544    -0.73100
O1365       O  0.13423264  0.72558480  0.03627557    -0.52300
O1366       O  0.07405157  0.72449188  0.05188344    -0.97000
O1367       O  0.01734674  0.68715712  0.10995179    -0.54200
O1368       O  0.07504113  0.74150740  0.10877777    -0.73600
C1369       C  0.09148011  0.75915967  0.12728478     0.98800
O1370       O  0.16003547  0.73775103  0.18158635    -0.62400
O1371       O  0.04557904  0.60704135  0.18884206    -0.57200
O1372       O  0.10505943  0.71387459  0.19378053    -0.93900
O1373       O  0.07416506  0.66590815  0.19959242    -0.92300
O1374       O  0.11978229  0.61784691  0.17668729    -0.92700
O1375       O  0.16957665  0.66574926  0.16640243    -0.91400
C1376       C  0.09033615  0.69172564  0.20899685     1.17600
H1377       H  0.06902798  0.60090355  0.13440657     0.33600
H1378       H  0.16648158  0.70608986  0.12628124     0.44400
H1379       H  0.06201355  0.70019561  0.15141063     0.37900
H1380       H  0.08258326  0.67322942  0.04680764     0.34400
H1381       H  0.17591705  0.63638197  0.12370893     0.26200
H1382       H  0.14885837  0.74594093  0.04026539     0.32100
H1383       H  0.09296852  0.74186032  0.05582205     0.38100
H1384       H  0.09847801  0.60695016  0.17865597     0.32500
H1385       H  0.02549173  0.60065807  0.19471189     0.31400
H1386       H  0.02418016  0.66361113  0.18575558     0.33100
H1387       H  0.02237287  0.70067458  0.12567155     0.32000
H1388       H  0.17075516  0.68368249  0.17361577     0.36000
H1389       H  0.15517331  0.72190245  0.19473242     0.28800
H1390       H  0.03700436  0.58965013  0.03518558     0.33000
H1391       H  0.01837467  0.68614694  0.05508449     0.35900
H1392       H  0.04423777  0.59029521  0.17869543     0.28500
H1393       H  0.17777889  0.74020851  0.17253809     0.41300
H1394       H  0.18964069  0.69666371  0.07156527     0.31400
H1395       H  0.16619922  0.64183779  0.09518865     0.39000
H1396       H  0.00796033  0.66775647  0.11839479     0.30900
H1397       H  0.14238553  0.72011911  0.02056573     0.30900
H1398       H  0.04466147  0.62134074  0.02838613     0.31200
Zr1399     Zr  0.12947693  0.55751135  0.91177856     2.17500
O1400       O  0.11138635  0.52317406  0.94955216    -0.51200
O1401       O  0.08719306  0.56152784  0.90324330    -0.74400
O1402       O  0.12325169  0.58039672  0.95311367    -0.81200
O1403       O  0.11335085  0.50102050  0.85572434    -0.82900
O1404       O  0.16445662  0.62366046  0.95900984    -0.78500
O1405       O  0.09657834  0.50821767  0.89642188    -0.90200
O1406       O  0.10080971  0.59865215  0.87337354    -0.76100
O1407       O  0.15133229  0.60827160  0.90553396    -0.85600
O1408       O  0.12768833  0.56447227  0.86353896    -0.85300
O1409       O  0.17759799  0.57753456  0.92978761    -0.72100
O1410       O  0.15552050  0.53741218  0.88931466    -0.84200
Zr1411     Zr  0.22455219  0.61567924  0.85144544     2.26400
Zr1412     Zr  0.19941782  0.62846971  0.92248611     2.06300
Zr1413     Zr  0.15475119  0.54565234  0.84113153     2.10000
Zr1414     Zr  0.14974849  0.61531021  0.85779265     1.78800
O1415       O  0.16880438  0.51058371  0.82671349    -0.93000
O1416       O  0.15067475  0.65935386  0.87273387    -0.40800
O1417       O  0.17629159  0.59642410  0.83490015    -0.77400
O1418       O  0.19854852  0.63644894  0.87401421    -0.96100
O1419       O  0.22584735  0.60882661  0.89976551    -0.89400
O1420       O  0.20316080  0.56486307  0.85740316    -0.92300
C1421       C  0.08230689  0.57868801  0.88903678     1.01500
C1422       C  0.09548879  0.49243922  0.87580913     1.14400
C1423       C  0.13835420  0.60449097  0.96602447     1.05200
O1424       O  0.20460904  0.67509771  0.93464448    -0.94400
O1425       O  0.24733884  0.66919403  0.91115986    -0.90200
O1426       O  0.26129333  0.66185267  0.86901152    -0.83300
C1427       C  0.26536168  0.67669808  0.89099225     1.11800
O1428       O  0.18316921  0.52204872  0.94209346    -0.96400
Zr1429     Zr  0.20380556  0.55814784  0.90593404     1.88900
O1430       O  0.26214787  0.60216690  0.85381013    -0.73100
O1431       O  0.22557403  0.62808632  0.96322762    -0.52300
O1432       O  0.23483105  0.57087161  0.94620686    -0.97000
O1433       O  0.20065497  0.51329254  0.88986761    -0.54200
O1434       O  0.25236415  0.57347116  0.89109145    -0.73600
C1435       C  0.26856599  0.58815182  0.87109921     0.98800
O1436       O  0.25668311  0.65635688  0.82243466    -0.62400
O1437       O  0.11787906  0.52681488  0.80529011    -0.57200
O1438       O  0.21705035  0.60512199  0.80174066    -0.93900
O1439       O  0.17299442  0.56518016  0.79567824    -0.92300
O1440       O  0.12009141  0.60135342  0.81651913    -0.92700
O1441       O  0.17082196  0.65312081  0.82333119    -0.91400
C1442       C  0.19630926  0.58674281  0.78638122     1.17600
H1443       H  0.10809767  0.55457559  0.85668299     0.33600
H1444       H  0.20812907  0.65694438  0.87045714     0.44400
H1445       H  0.21310826  0.55691419  0.84711428     0.37900
H1446       H  0.17682987  0.57356956  0.94918698     0.34400
H1447       H  0.13346878  0.65840174  0.86404197     0.26200
H1448       H  0.24622887  0.63892235  0.95785418     0.32100
H1449       H  0.24929880  0.59156665  0.94386677     0.38100
H1450       H  0.12968258  0.59429898  0.80368606     0.32500
H1451       H  0.11540667  0.50770527  0.80029721     0.31400
H1452       H  0.17433112  0.51500278  0.80716592     0.33100
H1453       H  0.21517610  0.51899449  0.87499245     0.32000
H1454       H  0.18491308  0.64942283  0.81341622     0.36000
H1455       H  0.26563856  0.64898410  0.80919390     0.28800
H1456       H  0.09219588  0.52077575  0.95408448     0.33000
H1457       H  0.19666245  0.51452817  0.94425121     0.35900
H1458       H  0.09955527  0.52245665  0.81447330     0.28500
H1459       H  0.24383311  0.66071769  0.81133022     0.41300
H1460       H  0.19983118  0.68176672  0.91756682     0.31400
H1461       H  0.14587346  0.65646781  0.89254055     0.39000
H1462       H  0.18177030  0.50279015  0.88036778     0.30900
H1463       H  0.22330751  0.64098193  0.97645704     0.30900
H1464       H  0.12374538  0.53356724  0.96552327     0.31200
Zr1465     Zr  0.06604229  0.94413203  0.08599789     2.17500
O1466       O  0.08751624  0.97908097  0.04896641    -0.51200
O1467       O  0.01922358  0.94038999  0.08785975    -0.74400
O1468       O  0.04207523  0.92104198  0.04290015    -0.81200
O1469       O  0.10084683  0.99940209  0.14438586    -0.82900
O1470       O  0.04043149  0.87766697  0.03974572    -0.78500
O1471       O  0.08161760  0.99352903  0.10152824    -0.90200
O1472       O  0.49209581  0.89905847  0.11683656    -0.76100
O1473       O  0.03686316  0.89313888  0.09135199    -0.85600
O1474       O  0.05212317  0.93619702  0.13325278    -0.85300
O1475       O  0.09496586  0.92353854  0.07166799    -0.72100
O1476       O  0.10954210  0.96372413  0.11226552    -0.84200
Zr1477     Zr  0.09750660  0.88477199  0.15240193     2.26400
Zr1478     Zr  0.06604695  0.87258341  0.07920648     2.06300
Zr1479     Zr  0.09569609  0.95422058  0.15939179     2.10000
Zr1480     Zr  0.02280194  0.88530912  0.13782531     1.78800
O1481       O  0.14328888  0.98894937  0.17720345    -0.93000
O1482       O  0.48408634  0.83895804  0.11647993    -0.40800
O1483       O  0.06616090  0.90333568  0.16433928    -0.77400
O1484       O  0.05228918  0.86392394  0.12681486    -0.96100
O1485       O  0.11005242  0.89239825  0.10487648    -0.89400
O1486       O  0.12668698  0.93569306  0.14661357    -0.92300
C1487       C  0.49398745  0.91762607  0.09891936     1.01500
C1488       C  0.09411123  0.00873625  0.12317020     1.14400
C1489       C  0.03439594  0.89675680  0.03085320     1.05200
O1490       O  0.02497771  0.82672120  0.06482032    -0.94400
O1491       O  0.07071986  0.83099350  0.09178748    -0.90200
O1492       O  0.08771264  0.83775389  0.13553994    -0.83300
C1493       C  0.07902356  0.82311715  0.11315586     1.11800
O1494       O  0.15673546  0.98293330  0.06593167    -0.96400
Zr1495     Zr  0.13812889  0.94316704  0.09853892     1.88900
O1496       O  0.14896747  0.89728308  0.15041977    -0.73100
O1497       O  0.09717673  0.87265278  0.04237340    -0.52300
O1498       O  0.15433359  0.92993717  0.05686703    -0.97000
O1499       O  0.18129406  0.98617210  0.11524474    -0.54200
O1500       O  0.16934465  0.92618366  0.11350913    -0.73600
C1501       C  0.16998438  0.91102912  0.13330830     0.98800
O1502       O  0.09396256  0.85221390  0.18909282    -0.62400
O1503       O  0.07365365  0.97180545  0.19265866    -0.57200
O1504       O  0.09423847  0.89408061  0.20199500    -0.93900
O1505       O  0.09160676  0.93514661  0.20518952    -0.92300
O1506       O  0.00481851  0.89902643  0.17785399    -0.92700
O1507       O  0.99847533  0.84596513  0.17043212    -0.91400
C1508       C  0.09162105  0.91333444  0.21595547     1.17600
H1509       H  0.04182603  0.94604819  0.13863410     0.33600
H1510       H  0.04097852  0.84339968  0.13012271     0.44400
H1511       H  0.14378689  0.94364297  0.15797800     0.37900
H1512       H  0.09976813  0.92733734  0.05243098     0.34400
H1513       H  0.46619213  0.83738576  0.12430897     0.26200
H1514       H  0.08978843  0.85197534  0.03816014     0.32100
H1515       H  0.17558284  0.93908468  0.05883341     0.38100
H1516       H  0.52133340  0.90810227  0.18829266     0.32500
H1517       H  0.08924300  0.99138205  0.19792951     0.31400
H1518       H  0.14137246  0.98676273  0.19739866     0.33100
H1519       H  0.18778030  0.97978460  0.13140646     0.32000
H1520       H  0.01360310  0.84158713  0.17634483     0.36000
H1521       H  0.07534013  0.83411071  0.18627489     0.28800
H1522       H  0.07098843  0.97756222  0.03841236     0.33000
H1523       H  0.17682056  0.98770173  0.06176588     0.35900
H1524       H  0.05972391  0.97506139  0.18211004     0.28500
H1525       H  0.10907792  0.84709707  0.18508775     0.41300
H1526       H  0.01056530  0.82179141  0.07968665     0.31400
H1527       H  0.48385293  0.84402124  0.09700072     0.39000
H1528       H  0.17399754  0.99850663  0.12302536     0.30900
H1529       H  0.09189692  0.88006987  0.02613041     0.30900
H1530       H  0.09653932  0.97102287  0.03659364     0.31200
Zr1531     Zr  0.45077724  0.87798700  0.92083911     2.17500
O1532       O  0.43357308  0.89556229  0.95880428    -0.51200
O1533       O  0.49826236  0.91993378  0.91608267    -0.74400
O1534       O  0.47351861  0.87875112  0.96315942    -0.81200
O1535       O  0.41914336  0.90476742  0.86953675    -0.82900
O1536       O  0.48168208  0.84083210  0.96190852    -0.78500
O1537       O  0.44123331  0.91600490  0.91119564    -0.90200
O1538       O  0.01966964  0.90590601  0.87652550    -0.76100
O1539       O  0.48080118  0.85810334  0.90999611    -0.85600
O1540       O  0.45858716  0.88374345  0.87255093    -0.85300
O1541       O  0.42406663  0.82900185  0.93608546    -0.72100
O1542       O  0.40354442  0.85418981  0.90078156    -0.84200
Zr1543     Zr  0.41218328  0.78770191  0.85432584     2.26400
Zr1544     Zr  0.45357857  0.80871193  0.92318336     2.06300
Zr1545     Zr  0.41161901  0.85840725  0.85234113     2.10000
Zr1546     Zr  0.48763870  0.86278867  0.86191765     1.78800
O1547       O  0.36147605  0.84629160  0.84645445    -0.93000
O1548       O  0.02767916  0.85345119  0.87105531    -0.40800
O1549       O  0.44073277  0.83742169  0.84132608    -0.77400
O1550       O  0.46035660  0.81251994  0.87416173    -0.96100
O1551       O  0.40616288  0.78339526  0.90298692    -0.89400
O1552       O  0.38317017  0.80880382  0.86556987    -0.92300
C1553       C  0.01933483  0.92297580  0.89510622     1.01500
C1554       C  0.42974217  0.92119166  0.89078305     1.14400
C1555       C  0.48446775  0.86426595  0.97281732     1.05200
O1556       O  0.49771903  0.80611138  0.92717049    -0.94400
O1557       O  0.44625112  0.76184188  0.90807042    -0.90200
O1558       O  0.42435099  0.75093449  0.86626503    -0.83300
C1559       C  0.43567291  0.74541658  0.88683685     1.11800
O1560       O  0.36475932  0.82384322  0.95434525    -0.96400
Zr1561     Zr  0.37757377  0.80475068  0.91446989     1.88900
O1562       O  0.36151743  0.74893487  0.85954881    -0.73100
O1563       O  0.43266260  0.77903981  0.96378087    -0.52300
O1564       O  0.36226413  0.77131937  0.95287253    -0.97000
O1565       O  0.33417981  0.80760172  0.90526835    -0.54200
O1566       O  0.34306232  0.75744708  0.89822560    -0.73600
C1567       C  0.34130678  0.74187483  0.87750356     0.98800
O1568       O  0.41157770  0.75891031  0.81489565    -0.62400
O1569       O  0.42071158  0.89180011  0.81473430    -0.57200
O1570       O  0.40925211  0.79875437  0.80587492    -0.93900
O1571       O  0.41032172  0.84178129  0.80538351    -0.92300
O1572       O  0.50377193  0.89646349  0.82371476    -0.92700
O1573       O  0.50376261  0.84701062  0.82191385    -0.91400
C1574       C  0.40963840  0.82003993  0.79321737     1.17600
H1575       H  0.46838957  0.90383341  0.86729484     0.33600
H1576       H  0.47111545  0.80329749  0.86828126     0.44400
H1577       H  0.36490713  0.79937965  0.85594786     0.37900
H1578       H  0.42167498  0.82837108  0.95579648     0.34400
H1579       H  0.04392664  0.86826101  0.86007443     0.26200
H1580       H  0.41250325  0.76503035  0.95845557     0.32100
H1581       H  0.34115977  0.76367418  0.95446236     0.38100
H1582       H  0.98412069  0.88959939  0.81191508     0.32500
H1583       H  0.40788837  0.89996799  0.81805132     0.31400
H1584       H  0.35789805  0.85639735  0.86177537     0.33100
H1585       H  0.31874333  0.79160723  0.91598454     0.32000
H1586       H  0.48599141  0.83004232  0.81480229     0.36000
H1587       H  0.43102540  0.76083885  0.81422117     0.28800
H1588       H  0.45105506  0.91235631  0.96659627     0.33000
H1589       H  0.37502601  0.84500821  0.95155955     0.35900
H1590       H  0.44054644  0.90806885  0.81793050     0.28500
H1591       H  0.39820827  0.73850079  0.81982213     0.41300
H1592       H  0.50360157  0.80533623  0.90801290     0.31400
H1593       H  0.03215255  0.86094088  0.89011936     0.39000
H1594       H  0.32920085  0.80143350  0.88589517     0.30900
H1595       H  0.44229247  0.76732924  0.96501343     0.30900
H1596       H  0.42692809  0.88051919  0.97314298     0.31200
Zr1597     Zr  0.38328958  0.94565885  0.08109106     2.17500
O1598       O  0.40286815  0.93175218  0.04229286    -0.51200
O1599       O  0.42438945  0.99337214  0.08782470    -0.74400
O1600       O  0.38139902  0.97031850  0.03916856    -0.81200
O1601       O  0.40542627  0.90671058  0.13266431    -0.82900
O1602       O  0.33869763  0.97032850  0.04047444    -0.78500
O1603       O  0.41937229  0.93121381  0.09226890    -0.90200
O1604       O  0.42010089  0.52115785  0.11889050    -0.76100
O1605       O  0.36034527  0.97296867  0.09265205    -0.85600
O1606       O  0.38842444  0.95392286  0.12956905    -0.85300
O1607       O  0.33346107  0.91693758  0.06718411    -0.72100
O1608       O  0.36000013  0.89912472  0.10248640    -0.84200
Zr1609     Zr  0.29242710  0.90580964  0.14981889     2.26400
Zr1610     Zr  0.31053859  0.94409228  0.08045569     2.06300
Zr1611     Zr  0.36399125  0.90766246  0.15092004     2.10000
Zr1612     Zr  0.36575776  0.98141866  0.14062291     1.78800
O1613       O  0.35258465  0.85869775  0.16204722    -0.93000
O1614       O  0.36794614  0.52976302  0.11702736    -0.40800
O1615       O  0.34197558  0.93566784  0.16288573    -0.77400
O1616       O  0.31548787  0.95294180  0.12889706    -0.96100
O1617       O  0.28744232  0.89778187  0.10138431    -0.89400
O1618       O  0.31458383  0.87784618  0.13829929    -0.92300
C1619       C  0.43685201  0.52014369  0.10021682     1.01500
C1620       C  0.42227195  0.91673450  0.11192777     1.14400
C1621       C  0.36318393  0.97716899  0.02937636     1.05200
O1622       O  0.30807196  0.98813335  0.07538387    -0.94400
O1623       O  0.26283935  0.93441538  0.09598724    -0.90200
O1624       O  0.25208524  0.91218145  0.13753931    -0.83300
C1625       C  0.24604888  0.92279339  0.11679199     1.11800
O1626       O  0.33028220  0.85730338  0.05081741    -0.96400
Zr1627     Zr  0.31054346  0.87102183  0.08961171     1.88900
O1628       O  0.25477615  0.85528230  0.14650351    -0.73100
O1629       O  0.27797302  0.92030144  0.04197236    -0.52300
O1630       O  0.27718305  0.85350997  0.05090464    -0.97000
O1631       O  0.31481045  0.82902884  0.10149767    -0.54200
O1632       O  0.26340949  0.83793292  0.10702395    -0.73600
C1633       C  0.24780703  0.83581167  0.12786189     0.98800
O1634       O  0.26416140  0.91548641  0.18339889    -0.62400
O1635       O  0.40306642  0.92691092  0.18456231    -0.57200
O1636       O  0.30279680  0.89912097  0.19747625    -0.93900
O1637       O  0.34718533  0.90301192  0.19767107    -0.92300
O1638       O  0.39515556  0.99477649  0.18204513    -0.92700
O1639       O  0.34821287  0.00100963  0.17630875    -0.91400
C1640       C  0.32460517  0.90021242  0.20982904     1.17600
H1641       H  0.40851987  0.96374712  0.13496096     0.33600
H1642       H  0.30568443  0.96324786  0.13444050     0.44400
H1643       H  0.30586998  0.85981586  0.14818205     0.37900
H1644       H  0.33234397  0.91406094  0.04751469     0.34400
H1645       H  0.38308720  0.54694432  0.12684973     0.26200
H1646       H  0.27489446  0.93549558  0.03385127     0.32100
H1647       H  0.26396118  0.86121367  0.05418603     0.38100
H1648       H  0.40193177  0.49063848  0.18416285     0.32500
H1649       H  0.40740019  0.91116707  0.18771275     0.31400
H1650       H  0.37124961  0.86056798  0.16770128     0.33100
H1651       H  0.30378017  0.82158539  0.11878245     0.32000
H1652       H  0.33056099  0.98402257  0.18347403     0.36000
H1653       H  0.25497973  0.89842540  0.19555813     0.28800
H1654       H  0.41704382  0.95010231  0.03346828     0.33000
H1655       H  0.31723139  0.83628155  0.04819501     0.35900
H1656       H  0.42029510  0.94204575  0.17488971     0.28500
H1657       H  0.27851530  0.93145748  0.19504879     0.41300
H1658       H  0.31006874  0.99587510  0.09427259     0.31400
H1659       H  0.37545598  0.53178695  0.09805659     0.39000
H1660       H  0.33529666  0.83712142  0.10692121     0.30900
H1661       H  0.28971619  0.91698166  0.02818988     0.30900
H1662       H  0.38670860  0.92233898  0.02903434     0.31200
Zr1663     Zr  0.45115781  0.55921371  0.90930858     2.17500
O1664       O  0.48681174  0.57529189  0.94613097    -0.51200
O1665       O  0.44454131  0.51130998  0.90363243    -0.74400
O1666       O  0.42855042  0.53564120  0.95219674    -0.81200
O1667       O  0.50852542  0.59585706  0.85413390    -0.82900
O1668       O  0.38451676  0.53259729  0.95470814    -0.78500
O1669       O  0.49944933  0.57191956  0.89470211    -0.90200
O1670       O  0.39598886  0.98303420  0.85957673    -0.76100
O1671       O  0.40048021  0.53089626  0.90173589    -0.85600
O1672       O  0.44547904  0.55005798  0.86112015    -0.85300
O1673       O  0.43143294  0.58807499  0.92594437    -0.72100
O1674       O  0.47314852  0.60541886  0.88752531    -0.84200
Zr1675     Zr  0.39559483  0.59757066  0.84667754     2.26400
Zr1676     Zr  0.38068013  0.56004171  0.91664428     2.06300
Zr1677     Zr  0.46554579  0.59612545  0.83936085     2.10000
Zr1678     Zr  0.39473750  0.52167002  0.85399817     1.78800
O1679       O  0.50145278  0.64538879  0.82703314    -0.93000
O1680       O  0.33833860  0.97667968  0.86556978    -0.40800
O1681       O  0.41481590  0.56759324  0.83236415    -0.77400
O1682       O  0.37337188  0.55036618  0.86818546    -0.96100
O1683       O  0.40177618  0.60616918  0.89493163    -0.89400
O1684       O  0.44645557  0.62606973  0.85418138    -0.92300
C1685       C  0.41440514  0.98175152  0.87519193     1.01500
C1686       C  0.51575227  0.58550578  0.87423171     1.14400
C1687       C  0.40402407  0.52729287  0.96380585     1.05200
O1688       O  0.33330409  0.51780436  0.92421732    -0.94400
O1689       O  0.34146811  0.56915005  0.90634782    -0.90200
O1690       O  0.34775751  0.58580399  0.86260956    -0.83300
C1691       C  0.33348878  0.57749348  0.88513445     1.11800
O1692       O  0.48776764  0.64890555  0.93997346    -0.95200
Zr1693     Zr  0.45247835  0.63355427  0.90289589     1.88900
O1694       O  0.40936448  0.64902197  0.85206184    -0.73100
O1695       O  0.37819763  0.58447895  0.95816053    -0.52300
O1696       O  0.43831108  0.65073031  0.94328158    -0.97000
O1697       O  0.49845902  0.67459747  0.88855840    -0.54200
O1698       O  0.43874060  0.66782754  0.88913469    -0.73600
C1699       C  0.42372564  0.66945986  0.86962509     0.98800
O1700       O  0.36532686  0.60015062  0.81055241    -0.62400
O1701       O  0.48481956  0.57905795  0.80277855    -0.57200
O1702       O  0.40425204  0.59355391  0.79732907    -0.93900
O1703       O  0.44732796  0.59477461  0.79363626    -0.92300
O1704       O  0.40876379  0.50800725  0.81127145    -0.92700
O1705       O  0.35619060  0.50159084  0.81995314    -0.91400
C1706       C  0.42444330  0.59288074  0.78318705     1.17600
H1707       H  0.45542509  0.54014832  0.85480232     0.33600
H1708       H  0.35292401  0.53960571  0.86414199     0.44400
H1709       H  0.45478067  0.64390295  0.84401320     0.37900
H1710       H  0.43486195  0.59128797  0.94544661     0.34400
H1711       H  0.33626341  0.96068181  0.85361110     0.26200
H1712       H  0.35991813  0.57025267  0.96712602     0.32100
H1713       H  0.41707954  0.64205723  0.94167856     0.38100
H1714       H  0.38251788  0.98489300  0.80461532     0.32500
H1715       H  0.50472144  0.59512722  0.79946428     0.31400
H1716       H  0.49649132  0.64766160  0.80799331     0.33100
H1717       H  0.49466656  0.68042958  0.87050517     0.32000
H1718       H  0.35566516  0.51856257  0.81261586     0.36000
H1719       H  0.34697574  0.58142396  0.81081897     0.28800
H1720       H  0.48550873  0.55744062  0.95347649     0.33000
H1721       H  0.49486635  0.66977786  0.94268204     0.35900
H1722       H  0.48732203  0.56353545  0.81097568     0.28500
H1723       H  0.36010110  0.61460045  0.81693502     0.41300
H1724       H  0.33457428  0.50163486  0.91561964     0.31400
H1725       H  0.34294458  0.97214505  0.88390226     0.39000
H1726       H  0.51098222  0.66626775  0.88435634     0.30900
H1727       H  0.39354658  0.58566632  0.97037134     0.30900
H1728       H  0.47906845  0.58234433  0.96092943     0.31200
C1729       C  0.36987888  0.99435331  0.00368527    -0.16300
C1730       C  0.39822988  0.51016609  0.98925846    -0.31400
H1731       H  0.35364135  0.99961048  0.99702147     0.12800
H1732       H  0.41568404  0.50778319  0.99784344     0.13300
C1733       C  0.42914360  0.94821445  0.89226655    -0.16300
C1734       C  0.41546479  0.95500035  0.87348040    -0.31400
H1735       H  0.43981202  0.96264310  0.90954448     0.12800
H1736       H  0.40396703  0.94014967  0.85670075     0.13300
C1737       C  0.43677207  0.71829580  0.88648322    -0.16300
C1738       C  0.42302298  0.69685590  0.86771031    -0.31400
H1739       H  0.44876921  0.71560529  0.90307289     0.12800
H1740       H  0.41055126  0.69913464  0.85134276     0.13300
C1741       C  0.50129975  0.87651877  0.99820580    -0.16300
C1742       C  0.01674398  0.89046636  0.00536026    -0.31400
H1743       H  0.49544457  0.88937885  0.01130609     0.12800
H1744       H  0.01292388  0.90725381  0.99749725     0.13300
C1745       C  0.46894124  0.92207809  0.09485595    -0.16300
C1746       C  0.44630182  0.91048071  0.11203884    -0.31400
H1747       H  0.47009089  0.93670057  0.07886499     0.12800
H1748       H  0.44595795  0.89661437  0.12845207     0.13300
C1749       C  0.21794744  0.92190976  0.11629100    -0.16300
C1750       C  0.19719277  0.90994287  0.13594908    -0.31400
H1751       H  0.21429384  0.93172467  0.09841397     0.12800
H1752       H  0.20025088  0.89956098  0.15369655     0.13300
C1753       C  0.29274252  0.70449417  0.89337734    -0.16300
C1754       C  0.31403626  0.71398285  0.87426949    -0.31400
H1755       H  0.29552517  0.71739649  0.91166791     0.12800
H1756       H  0.31154706  0.70098521  0.85612565     0.13300
C1757       C  0.04471774  0.95194868  0.89816733    -0.16300
C1758       C  0.06716797  0.96192926  0.88083107    -0.31400
H1759       H  0.04422240  0.96589957  0.91426711     0.12800
H1760       H  0.06742873  0.94811192  0.86446210     0.13300
C1761       C  0.29644025  0.58876887  0.86790676    -0.16300
C1762       C  0.30578504  0.57721377  0.88709835    -0.31400
H1763       H  0.30958044  0.59916026  0.84991093     0.12800
H1764       H  0.29289656  0.56758283  0.90541603     0.13300
C1765       C  0.04440723  0.58846593  0.87376187    -0.16300
C1766       C  0.05316879  0.57481050  0.89083479    -0.31400
H1767       H  0.05889259  0.60268833  0.85797865     0.12800
H1768       H  0.03838850  0.55980211  0.90599259     0.13300
C1769       C  0.46665048  0.54475375  0.09704153    -0.16300
C1770       C  0.47947025  0.56481735  0.11669900    -0.31400
H1771       H  0.47894904  0.54522538  0.07900593     0.12800
H1772       H  0.46728331  0.56353044  0.13511345     0.13300
C1773       C  0.21975353  0.80906690  0.13002425    -0.16300
C1774       C  0.20971193  0.79017898  0.10887254    -0.31400
H1775       H  0.20714001  0.80508275  0.14871732     0.12800
H1776       H  0.22234759  0.79449071  0.09014950     0.13300
C1777       C  0.09126074  0.78667910  0.13036557    -0.16300
C1778       C  0.07851067  0.79520287  0.11155405    -0.31400
H1779       H  0.10256386  0.80056680  0.14775994     0.12800
H1780       H  0.06820932  0.78173190  0.09363889     0.13300
C1781       C  0.09168736  0.55044395  0.09736571    -0.16300
C1782       C  0.10290537  0.54017130  0.11558591    -0.31400
H1783       H  0.07794500  0.53659875  0.08091067     0.12800
H1784       H  0.11585778  0.55375292  0.13255338     0.13300
C1785       C  0.13502650  0.63560286  0.00358138    -0.16300
C1786       C  0.12393373  0.60987373  0.99039566    -0.31400
H1787       H  0.15556328  0.65307348  0.99619184     0.12800
H1788       H  0.10325498  0.59221618  0.99722985     0.13300
C1789       C  0.39738675  0.58047785  0.73873925    -0.16300
C1790       C  0.42151029  0.58794507  0.75316987    -0.31400
H1791       H  0.37884947  0.58013748  0.74844708     0.12800
H1792       H  0.44011100  0.58935375  0.74245044     0.13300
C1793       C  0.00111170  0.60676537  0.48770641    -0.16300
C1794       C  0.48437142  0.61621663  0.50020758    -0.31400
H1795       H  0.99866290  0.58662845  0.49543170     0.12800
H1796       H  0.48511251  0.63515525  0.49124226     0.13300
C1797       C  0.09317791  0.67563450  0.25531548    -0.16300
C1798       C  0.09317064  0.69604354  0.23931491    -0.31400
H1799       H  0.09079024  0.65625267  0.24538088     0.12800
H1800       H  0.09735553  0.71649252  0.24816493     0.13300
C1801       C  0.17567503  0.58445016  0.74043268    -0.16300
C1802       C  0.19902942  0.59107512  0.75613000    -0.31400
H1803       H  0.15486733  0.57682201  0.75043932     0.12800
H1804       H  0.22035866  0.60050494  0.74683717     0.13300
C1805       C  0.30020390  0.57592751  0.63278635    -0.16300
C1806       C  0.27892850  0.56254151  0.61405016    -0.31400
H1807       H  0.29794072  0.58815644  0.64958133     0.12800
H1808       H  0.28176878  0.55106638  0.59688827     0.13300
C1809       C  0.03555322  0.57431237  0.59280836    -0.16300
C1810       C  0.05626587  0.58310785  0.61187655    -0.31400
H1811       H  0.03591912  0.56189360  0.57518603     0.12800
H1812       H  0.05501902  0.59456719  0.62990959     0.13300
C1813       C  0.13113954  0.49615816  0.50142892    -0.16300
C1814       C  0.13280593  0.99143862  0.49679138    -0.31400
H1815       H  0.14833804  0.49286258  0.49341917     0.12800
H1816       H  0.15289445  0.99495951  0.50587790     0.13300
C1817       C  0.07803866  0.52778520  0.38965744    -0.16300
C1818       C  0.09110287  0.55009235  0.37243320    -0.31400
H1819       H  0.06329358  0.52752104  0.40528759     0.12800
H1820       H  0.10516574  0.54996304  0.35627246     0.13300
C1821       C  0.08769854  0.79566032  0.37294835    -0.16300
C1822       C  0.07402636  0.77392943  0.39124180    -0.31400
H1823       H  0.09884885  0.79298678  0.35543056     0.12800
H1824       H  0.06354183  0.77695678  0.40911492     0.13300
C1825       C  0.09061323  0.89245996  0.26254806    -0.16300
C1826       C  0.08724181  0.91083681  0.24628618    -0.31400
H1827       H  0.09794321  0.87849875  0.25370470     0.12800
H1828       H  0.08183472  0.92596783  0.25593364     0.13300
C1829       C  0.40813943  0.79973434  0.74610472    -0.16300
C1830       C  0.41094648  0.82126858  0.76272580    -0.31400
H1831       H  0.40285739  0.77897931  0.75475198     0.12800
H1832       H  0.41454295  0.84125975  0.75346126     0.13300
C1833       C  0.29117539  0.69966364  0.61496958    -0.16300
C1834       C  0.28204880  0.67882961  0.63423677    -0.31400
H1835       H  0.27829855  0.69633006  0.59663900     0.12800
H1836       H  0.29489569  0.68171003  0.65247303     0.13300
C1837       C  0.03490317  0.95423321  0.60371991    -0.16300
C1838       C  0.02378145  0.93227174  0.62154964    -0.31400
H1839       H  0.02166313  0.95440903  0.58691069     0.12800
H1840       H  0.03696373  0.93284446  0.63877626     0.13300
C1841       C  0.40023382  0.70158139  0.63169950    -0.16300
C1842       C  0.40950942  0.69182002  0.61049155    -0.31400
H1843       H  0.39125860  0.68852455  0.64998214     0.12800
H1844       H  0.41789837  0.70478658  0.59206555     0.13300
C1845       C  0.40751943  0.94168882  0.60339491    -0.16300
C1846       C  0.39661931  0.95263044  0.62161696    -0.31400
H1847       H  0.42065245  0.95488971  0.58641844     0.12800
H1848       H  0.38419622  0.93965902  0.63901370     0.13300
C1849       C  0.30376653  0.89571966  0.25694750    -0.16300
C1850       C  0.32564176  0.90018916  0.24010250    -0.31400
H1851       H  0.28240350  0.88904196  0.24880448     0.12800
H1852       H  0.34624731  0.90506277  0.24908935     0.13300
C1853       C  0.38240314  0.87565990  0.49171760    -0.16300
C1854       C  0.36811122  0.85170769  0.50711250    -0.31400
H1855       H  0.40365187  0.89259562  0.49826373     0.12800
H1856       H  0.34703785  0.83485017  0.50003217     0.13300
C1857       C  0.43929329  0.52320498  0.37204057    -0.16300
C1858       C  0.46228603  0.53251173  0.38857601    -0.31400
H1859       H  0.43903264  0.53738892  0.35628548     0.12800
H1860       H  0.46281894  0.51811240  0.40392611     0.13300
C1861       C  0.21539889  0.78292371  0.39288791    -0.16300
C1862       C  0.19410774  0.77558379  0.37420618    -0.31400
H1863       H  0.21234318  0.76878866  0.41005328     0.12800
H1864       H  0.19699452  0.78985295  0.35720577     0.13300
C1865       C  0.45517493  0.89803194  0.37625150    -0.16300
C1866       C  0.47674351  0.91425194  0.39365114    -0.31400
H1867       H  0.45846415  0.88583023  0.36007200     0.12800
H1868       H  0.47320365  0.92575670  0.41034714     0.13300
C1869       C  0.21738341  0.89872675  0.37401269    -0.16300
C1870       C  0.20949953  0.91132011  0.39363929    -0.31400
H1871       H  0.20327595  0.88821018  0.35656233     0.12800
H1872       H  0.22339664  0.92124558  0.41135741     0.13300
Zr1873     Zr  0.87696426  0.43070876  0.40587599     2.17500
O1874       O  0.89840691  0.46736725  0.44182812    -0.51200
O1875       O  0.91829975  0.42482424  0.39737143    -0.74400
O1876       O  0.88134446  0.40855900  0.44782159    -0.81200
O1877       O  0.89447687  0.48745864  0.35097197    -0.82900
O1878       O  0.84039308  0.36481102  0.45201845    -0.78500
O1879       O  0.91135674  0.47925340  0.39076785    -0.90200
O1880       O  0.90601300  0.39082290  0.36388622    -0.76100
O1881       O  0.85497178  0.38003070  0.39800122    -0.85600
O1882       O  0.87805783  0.42489964  0.35736232    -0.85300
O1883       O  0.82927938  0.40998724  0.42520751    -0.72100
O1884       O  0.85057559  0.45159292  0.38623632    -0.84200
Zr1885     Zr  0.78035926  0.37345396  0.34785767     2.26400
Zr1886     Zr  0.80677621  0.35926720  0.41546492     2.06300
Zr1887     Zr  0.85010928  0.44396551  0.33772099     2.10000
Zr1888     Zr  0.85624286  0.37430318  0.34986849     1.78800
O1889       O  0.83436355  0.47855374  0.32754091    -0.93000
O1890       O  0.85644709  0.33041367  0.36268368    -0.40800
O1891       O  0.82840583  0.39323975  0.32998534    -0.77400
O1892       O  0.80735063  0.35230319  0.36681524    -0.96100
O1893       O  0.77980032  0.37957363  0.39632894    -0.89400
O1894       O  0.80205407  0.42419636  0.35565957    -0.92300
C1895       C  0.92390131  0.40916267  0.38134035     1.01500
C1896       C  0.91308424  0.49525224  0.37042400     1.14400
C1897       C  0.86576583  0.38431787  0.45999000     1.05200
O1898       O  0.80335737  0.31301645  0.42505175    -0.94400
O1899       O  0.75938138  0.31779353  0.40460333    -0.90200
O1900       O  0.74545758  0.32537194  0.36291281    -0.83300
C1901       C  0.74158936  0.31011236  0.38434773     1.11800
O1902       O  0.82625660  0.46640747  0.44069993    -0.96400
Zr1903     Zr  0.80275825  0.43021097  0.40456896     1.88900
O1904       O  0.74218519  0.38541254  0.35555108    -0.73100
O1905       O  0.78002186  0.35682607  0.45698253    -0.52300
O1906       O  0.77438100  0.41512734  0.44677008    -0.97000
O1907       O  0.80272171  0.47458843  0.39319655    -0.54200
O1908       O  0.75360538  0.41488332  0.39282008    -0.73600
C1909       C  0.73637017  0.39931101  0.37376263     0.98800
O1910       O  0.74490025  0.33501919  0.31830433    -0.62400
O1911       O  0.88370691  0.46403297  0.29924788    -0.57200
O1912       O  0.78571263  0.38532679  0.29875415    -0.93900
O1913       O  0.83030228  0.42438168  0.29254366    -0.92300
O1914       O  0.88338627  0.38932108  0.30705348    -0.92700
O1915       O  0.83602313  0.33806732  0.31352538    -0.91400
C1916       C  0.80638463  0.40344193  0.28337235     1.17600
H1917       H  0.89756521  0.43502634  0.35025279     0.33600
H1918       H  0.79787743  0.33192254  0.36253417     0.44400
H1919       H  0.79151389  0.43201392  0.34642963     0.37900
H1920       H  0.83045597  0.41326872  0.44482070     0.34400
H1921       H  0.87388211  0.33206471  0.35366525     0.26200
H1922       H  0.76124484  0.35393256  0.45031026     0.32100
H1923       H  0.76410317  0.42626628  0.44739957     0.38100
H1924       H  0.88105310  0.40557077  0.30058349     0.32500
H1925       H  0.88788545  0.48421244  0.29745806     0.31400
H1926       H  0.84268662  0.49306916  0.34249650     0.33100
H1927       H  0.79491390  0.47161845  0.37431625     0.32000
H1928       H  0.82091074  0.34107669  0.30501010     0.36000
H1929       H  0.73542685  0.34365037  0.30755069     0.28800
H1930       H  0.91510324  0.46596967  0.44870677     0.33000
H1931       H  0.81227504  0.47266042  0.44600410     0.35900
H1932       H  0.90204645  0.46564450  0.30566797     0.28500
H1933       H  0.75616041  0.33066002  0.30480339     0.41300
H1934       H  0.81976110  0.31360495  0.41492068     0.31400
H1935       H  0.86123565  0.33286024  0.38249158     0.39000
H1936       H  0.82340426  0.48938303  0.39128295     0.30900
H1937       H  0.77523710  0.33812802  0.46538016     0.30900
H1938       H  0.88419158  0.46017527  0.45704841     0.31200
Zr1939     Zr  0.92989073  0.36888814  0.57311236     2.17500
O1940       O  0.96095424  0.38506436  0.53264415    -0.51200
O1941       O  0.92479872  0.41110674  0.57886978    -0.74400
O1942       O  0.90085776  0.36568884  0.53285922    -0.81200
O1943       O  0.99281215  0.38966471  0.62221727    -0.82900
O1944       O  0.85822033  0.32313377  0.53547960    -0.78500
O1945       O  0.98098552  0.40426763  0.58292081    -0.90200
O1946       O  0.89465415  0.40216643  0.61525306    -0.76100
O1947       O  0.88000821  0.34637562  0.58547054    -0.85600
O1948       O  0.92823418  0.37578538  0.62142803    -0.85300
O1949       O  0.90845673  0.31875231  0.56013616    -0.72100
O1950       O  0.95321387  0.34584107  0.59462305    -0.84200
Zr1951     Zr  0.88109763  0.27965196  0.64411965     2.26400
Zr1952     Zr  0.85900155  0.29616612  0.57503304     2.06300
Zr1953     Zr  0.95020114  0.35147493  0.64293853     2.10000
Zr1954     Zr  0.87834416  0.35374798  0.63307724     1.78800
O1955       O  0.98779270  0.34082013  0.65646814    -0.93000
O1956       O  0.83376754  0.35114129  0.61733026    -0.40800
O1957       O  0.90049665  0.32975026  0.65492252    -0.77400
O1958       O  0.85646156  0.30267886  0.62352685    -0.96100
O1959       O  0.88253284  0.27311623  0.59574865    -0.89400
O1960       O  0.93085890  0.30173047  0.63128507    -0.92300
C1961       C  0.91120976  0.41841410  0.59590652     1.01500
C1962       C  0.99909754  0.40635633  0.60157973     1.14400
C1963       C  0.87538161  0.34735202  0.52397756     1.05200
O1964       O  0.81091776  0.29015593  0.57004106    -0.94400
O1965       O  0.82032311  0.25006046  0.59130808    -0.90200
O1966       O  0.83168849  0.24164187  0.63385298    -0.83300
C1967       C  0.81468999  0.23482435  0.61311837     1.11800
O1968       O  0.96714298  0.31592455  0.54497617    -0.96400
Zr1969     Zr  0.93196623  0.29622950  0.58233977     1.88900
O1970       O  0.89466144  0.24208291  0.63842773    -0.73100
O1971       O  0.85206252  0.26372039  0.53681547    -0.52300
O1972       O  0.91079367  0.26260846  0.54389889    -0.97000
O1973       O  0.97838788  0.29922319  0.59083826    -0.54200
O1974       O  0.92048622  0.24984833  0.59909286    -0.73600
C1975       C  0.90749807  0.23486121  0.62017551     0.98800
O1976       O  0.85499458  0.25066092  0.68395184    -0.62400
O1977       O  0.97116969  0.39302666  0.67399067    -0.57200
O1978       O  0.89685033  0.29507846  0.69212278    -0.93900
O1979       O  0.93756577  0.33909907  0.69046461    -0.92300
O1980       O  0.89501712  0.38392348  0.67415875    -0.92700
O1981       O  0.84170859  0.33947700  0.66881981    -0.91400
C1982       C  0.91745825  0.31792277  0.70366341     1.17600
H1983       H  0.93865694  0.39600127  0.62639596     0.33600
H1984       H  0.83653437  0.29333264  0.62949789     0.44400
H1985       H  0.94070621  0.29347579  0.64102947     0.37900
H1986       H  0.90936934  0.31697386  0.54043654     0.34400
H1987       H  0.83382145  0.36802026  0.62593748     0.26200
H1988       H  0.85243533  0.24711635  0.54528988     0.32100
H1989       H  0.92054159  0.25095875  0.54391779     0.38100
H1990       H  0.91003605  0.38033929  0.68197429     0.32500
H1991       H  0.99156133  0.39798290  0.67639518     0.31400
H1992       H  0.98571698  0.33819658  0.67661516     0.33100
H1993       H  0.97648869  0.28128775  0.58276562     0.32000
H1994       H  0.84294747  0.32421870  0.67912259     0.36000
H1995       H  0.83728479  0.25217962  0.68560975     0.28800
H1996       H  0.95646479  0.39874961  0.52328076     0.33000
H1997       H  0.96304737  0.29953528  0.53261473     0.35900
H1998       H  0.97225215  0.40928555  0.66340573     0.28500
H1999       H  0.84810097  0.23029542  0.67872515     0.41300
H2000       H  0.80811314  0.29904198  0.58682129     0.31400
H2001       H  0.83688484  0.35592251  0.59755206     0.39000
H2002       H  0.97900451  0.29675172  0.61090045     0.30900
H2003       H  0.83162525  0.25593149  0.53135883     0.30900
H2004       H  0.95313786  0.36794356  0.52038091     0.31200
Zr2005     Zr  0.55470568  0.42993710  0.40618805     2.17500
O2006       O  0.51731189  0.41403955  0.44145926    -0.51200
O2007       O  0.56215647  0.47776796  0.40043465    -0.74400
O2008       O  0.57489231  0.45490828  0.44950978    -0.81200
O2009       O  0.50162314  0.39637968  0.34676834    -0.82900
O2010       O  0.61713287  0.45500021  0.45587639    -0.78500
O2011       O  0.50737290  0.41708926  0.38901645    -0.90200
O2012       O  0.60820398  0.00762685  0.38305356    -0.76100
O2013       O  0.60588776  0.45717229  0.40262816    -0.85600
O2014       O  0.56481483  0.44128057  0.35855852    -0.85300
O2015       O  0.57118777  0.39915757  0.42440168    -0.72100
O2016       O  0.53379584  0.38500829  0.38173466    -0.84200
Zr2017     Zr  0.61283927  0.39211873  0.34801730     2.26400
Zr2018     Zr  0.62268848  0.42635962  0.41929087     2.06300
Zr2019     Zr  0.54567341  0.39635468  0.33427471     2.10000
Zr2020     Zr  0.61613843  0.46843453  0.35556367     1.78800
O2021       O  0.51054939  0.34871630  0.31681630    -0.93000
O2022       O  0.66965091  0.01489208  0.38454622    -0.40800
O2023       O  0.59688281  0.42376865  0.33131620    -0.77400
O2024       O  0.63435024  0.43809701  0.37167320    -0.96100
O2025       O  0.60234212  0.38114621  0.39542081    -0.89400
O2026       O  0.56150117  0.36460122  0.35091272    -0.92300
C2027       C  0.59124985  0.00750351  0.40217348     1.01500
C2028       C  0.49261716  0.40487449  0.36729460     1.14400
C2029       C  0.59827923  0.46226892  0.46286388     1.05200
O2030       O  0.66936309  0.46512218  0.43505091    -0.94400
O2031       O  0.66375627  0.41941660  0.41010589    -0.90200
O2032       O  0.65669189  0.39823962  0.36806705    -0.83300
C2033       C  0.67124627  0.40871149  0.39012368     1.11800
O2034       O  0.50929246  0.33814339  0.42909919    -0.96400
Zr2035     Zr  0.55105396  0.35475563  0.39874645     1.88900
O2036       O  0.59953112  0.34141940  0.35092243    -0.73100
O2037       O  0.61801901  0.39690410  0.45902692    -0.52300
O2038       O  0.55848193  0.33521234  0.44104519    -0.97000
O2039       O  0.50843478  0.31378942  0.37849225    -0.54200
O2040       O  0.56762242  0.32202867  0.38612257    -0.73600
C2041       C  0.58407556  0.32087141  0.36759307     0.98800
O2042       O  0.65070904  0.40260906  0.31417808    -0.62400
O2043       O  0.52980701  0.41536706  0.29693345    -0.57200
O2044       O  0.60424392  0.38609983  0.29873487    -0.93900
O2045       O  0.57029652  0.39901270  0.29096911    -0.92300
O2046       O  0.60731735  0.48588138  0.31264591    -0.92700
O2047       O  0.65669568  0.48631322  0.32369750    -0.91400
C2048       C  0.58970366  0.39305307  0.28272430     1.17600
H2049       H  0.55600528  0.45201796  0.35173997     0.33600
H2050       H  0.65507945  0.44827666  0.36917086     0.44400
H2051       H  0.55390795  0.34721005  0.33992994     0.37900
H2052       H  0.56597011  0.39527850  0.44356835     0.34400
H2053       H  0.67268153  0.03191242  0.37390901     0.26200
H2054       H  0.62102150  0.38127851  0.45163718     0.32100
H2055       H  0.54668521  0.31396545  0.43890969     0.38100
H2056       H  0.59791145  0.97529894  0.31604554     0.32500
H2057       H  0.50972421  0.40008236  0.29281425     0.31400
H2058       H  0.51257844  0.35050907  0.29659722     0.33100
H2059       H  0.51589597  0.30525409  0.36488312     0.32000
H2060       H  0.65508120  0.46866794  0.31519359     0.36000
H2061       H  0.66838167  0.41988134  0.32101122     0.28800
H2062       H  0.51692107  0.43168590  0.44712517     0.33000
H2063       H  0.50179294  0.31722560  0.43173919     0.35900
H2064       H  0.52792312  0.43136642  0.30512761     0.28500
H2065       H  0.65485210  0.38652747  0.31545236     0.41300
H2066       H  0.67241050  0.48227381  0.42464600     0.31400
H2067       H  0.66448822  0.01834496  0.40319056     0.39000
H2068       H  0.49942925  0.32259237  0.36731556     0.30900
H2069       H  0.63556759  0.40910030  0.47006681     0.30900
H2070       H  0.52514266  0.40895521  0.45753782     0.31200
Zr2071     Zr  0.61182670  0.04922273  0.59012486     2.17500
O2072       O  0.59420111  0.06779745  0.55398195    -0.51200
O2073       O  0.57111514  0.00084362  0.59405083    -0.74400
O2074       O  0.61104573  0.02547742  0.54719679    -0.81200
O2075       O  0.58793644  0.08110013  0.64686336    -0.82900
O2076       O  0.65325286  0.02468825  0.54507328    -0.78500
O2077       O  0.57394059  0.05799265  0.60556063    -0.90200
O2078       O  0.58604585  0.47312184  0.60885075    -0.76100
O2079       O  0.63570963  0.02228280  0.59638537    -0.85600
O2080       O  0.60834782  0.03868979  0.63791807    -0.85300
O2081       O  0.66023095  0.08005290  0.57428623    -0.72100
O2082       O  0.63454105  0.09482305  0.61364526    -0.84200
Zr2083     Zr  0.70571037  0.08890271  0.65313629     2.26400
Zr2084     Zr  0.68449558  0.05346031  0.58254673     2.06300
Zr2085     Zr  0.63273398  0.08407918  0.66131646     2.10000
Zr2086     Zr  0.63197959  0.01142142  0.64356014     1.78800
O2087       O  0.64295912  0.13206783  0.67551889    -0.93000
O2088       O  0.63898132  0.46512216  0.61054846    -0.40800
O2089       O  0.65662932  0.05691759  0.66704666    -0.77400
O2090       O  0.68203022  0.04209865  0.63050252    -0.96100
O2091       O  0.70840195  0.09921846  0.60543275    -0.89400
O2092       O  0.68156227  0.11592279  0.64716439    -0.92300
C2093       C  0.56865865  0.47537907  0.59204432     1.01500
C2094       C  0.57044016  0.07055928  0.62654908     1.14400
C2095       C  0.62807782  0.01794930  0.53591884     1.05200
O2096       O  0.69360525  0.01477540  0.56896954    -0.94400
O2097       O  0.73232109  0.06176547  0.59301403    -0.90200
O2098       O  0.74304719  0.07889295  0.63672740    -0.83300
C2099       C  0.74891336  0.07053018  0.61405509     1.11800
O2100       O  0.66054253  0.14139497  0.56563383    -0.96400
Zr2101     Zr  0.68326607  0.12504926  0.59889977     1.88900
O2102       O  0.74316401  0.14012254  0.64867592    -0.73100
O2103       O  0.71018789  0.08256550  0.54283170    -0.52300
O2104       O  0.71079001  0.14140212  0.55631786    -0.97000
O2105       O  0.67983451  0.16646060  0.61539179    -0.54200
O2106       O  0.73191249  0.15921337  0.61251649    -0.73600
C2107       C  0.74900246  0.16062166  0.63159123     0.98800
O2108       O  0.73804856  0.09102613  0.68956636    -0.62400
O2109       O  0.59709913  0.06433706  0.69824382    -0.57200
O2110       O  0.69541788  0.08812616  0.70234534    -0.93900
O2111       O  0.65098832  0.08378843  0.70653525    -0.92300
O2112       O  0.60107211  0.99166905  0.68377682    -0.92700
O2113       O  0.64972095  0.99238652  0.67914474    -0.91400
C2114       C  0.67379628  0.08524921  0.71665161     1.17600
H2115       H  0.58846276  0.02795927  0.64397644     0.33600
H2116       H  0.69231906  0.03184353  0.63403718     0.44400
H2117       H  0.69051622  0.13344996  0.65803065     0.37900
H2118       H  0.66010051  0.08356557  0.55486158     0.34400
H2119       H  0.62309782  0.44728122  0.61872210     0.26200
H2120       H  0.73093580  0.09090907  0.54733289     0.32100
H2121       H  0.72761587  0.13862462  0.55903999     0.38100
H2122       H  0.59659860  0.49932960  0.67492389     0.32500
H2123       H  0.58842643  0.07693157  0.69949426     0.31400
H2124       H  0.63790729  0.13008667  0.69527906     0.33100
H2125       H  0.69046516  0.17218538  0.63301990     0.32000
H2126       H  0.66542649  0.00976028  0.68824725     0.36000
H2127       H  0.73737757  0.07216104  0.68907626     0.28800
H2128       H  0.57731950  0.05054621  0.54600957     0.33000
H2129       H  0.67522858  0.16158081  0.56123258     0.35900
H2130       H  0.58143249  0.04566020  0.69109677     0.28500
H2131       H  0.75784486  0.10530341  0.68348667     0.41300
H2132       H  0.69024839  0.00331801  0.58587016     0.31400
H2133       H  0.63344908  0.46407994  0.59101590     0.39000
H2134       H  0.65927407  0.15834942  0.62062995     0.30900
H2135       H  0.70660547  0.06837838  0.52802059     0.30900
H2136       H  0.60919378  0.07458116  0.53946070     0.31200
Zr2137     Zr  0.55223379  0.11059363  0.41696496     2.17500
O2138       O  0.56500300  0.09131173  0.45630672    -0.51200
O2139       O  0.50557733  0.06831677  0.40862070    -0.74400
O2140       O  0.52545226  0.11277755  0.45839381    -0.81200
O2141       O  0.59072360  0.08891782  0.36283973    -0.82900
O2142       O  0.52922713  0.15716507  0.45942847    -0.78500
O2143       O  0.57025637  0.07715970  0.40543998    -0.90200
O2144       O  0.98472103  0.07800430  0.37264871    -0.76100
O2145       O  0.52563594  0.13435448  0.40723242    -0.85600
O2146       O  0.54351176  0.10587064  0.36842514    -0.85300
O2147       O  0.58258218  0.16007066  0.43104834    -0.72100
O2148       O  0.59804734  0.13370512  0.39369040    -0.84200
Zr2149     Zr  0.59340152  0.20236064  0.34915485     2.26400
Zr2150     Zr  0.55615185  0.18390043  0.41943118     2.06300
Zr2151     Zr  0.58911153  0.13007096  0.34523068     2.10000
Zr2152     Zr  0.51605985  0.12880090  0.35953284     1.78800
O2153       O  0.63777257  0.14119240  0.33245846    -0.93000
O2154       O  0.97478512  0.13072998  0.37319652    -0.40800
O2155       O  0.56165661  0.15294161  0.33627074    -0.77400
O2156       O  0.54625437  0.17921359  0.37109632    -0.96100
O2157       O  0.60235532  0.20729076  0.39737905    -0.89400
O2158       O  0.62045751  0.17906272  0.35853713    -0.92300
C2159       C  0.98539182  0.06074860  0.39056690     1.01500
C2160       C  0.58338101  0.07361520  0.38462512     1.14400
C2161       C  0.52008970  0.13185884  0.46928658     1.05200
O2162       O  0.51398043  0.18937488  0.42694534    -0.94400
O2163       O  0.56316294  0.23027580  0.40553143    -0.90200
O2164       O  0.58377151  0.24040876  0.36314413    -0.83300
C2165       C  0.57328371  0.24631234  0.38430913     1.11800
O2166       O  0.64491489  0.16367899  0.44364480    -0.96400
Zr2167     Zr  0.62807992  0.18272557  0.40723014     1.88900
O2168       O  0.64513508  0.23876701  0.35322459    -0.73100
O2169       O  0.58307160  0.21456004  0.45820023    -0.52300
O2170       O  0.64413793  0.21459330  0.44725335    -0.97000
O2171       O  0.66841989  0.17641546  0.39281722    -0.54200
O2172       O  0.66353561  0.22960435  0.39132420    -0.73600
C2173       C  0.66556830  0.24516181  0.37070830     0.98800
O2174       O  0.59226640  0.23093783  0.31075318    -0.62400
O2175       O  0.56960943  0.09079566  0.31156870    -0.57200
O2176       O  0.59604616  0.19212028  0.30025644    -0.93900
O2177       O  0.59011629  0.14699209  0.29845739    -0.92300
O2178       O  0.50142142  0.09948884  0.31788881    -0.92700
O2179       O  0.49702087  0.14754247  0.32492041    -0.91400
C2180       C  0.59305793  0.16989891  0.28691217     1.17600
H2181       H  0.53356996  0.08593256  0.36251685     0.33600
H2182       H  0.53591021  0.18911244  0.36631371     0.44400
H2183       H  0.63828821  0.18752306  0.34820658     0.37900
H2184       H  0.58581598  0.16111216  0.45064114     0.34400
H2185       H  0.95792281  0.11329994  0.36544464     0.26200
H2186       H  0.59604534  0.23373957  0.45008764     0.32100
H2187       H  0.64372607  0.23210794  0.44144822     0.38100
H2188       H  0.02285161  0.10828489  0.30468986     0.32500
H2189       H  0.58493608  0.08570035  0.30884813     0.31400
H2190       H  0.63568858  0.13299499  0.31375779     0.33100
H2191       H  0.67590985  0.18771452  0.37573148     0.32000
H2192       H  0.51443436  0.16368979  0.31639279     0.36000
H2193       H  0.57290739  0.22922527  0.31135057     0.28800
H2194       H  0.54652829  0.07862172  0.46584666     0.33000
H2195       H  0.66510571  0.17892299  0.44741514     0.35900
H2196       H  0.55382749  0.07396748  0.32111743     0.28500
H2197       H  0.60608238  0.25137434  0.31539747     0.41300
H2198       H  0.50200773  0.18101133  0.41029200     0.31400
H2199       H  0.97353545  0.12714433  0.39320684     0.39000
H2200       H  0.65931093  0.15599989  0.38675343     0.30900
H2201       H  0.56863297  0.21723708  0.46869775     0.30900
H2202       H  0.57563545  0.10805346  0.46879846     0.31200
Zr2203     Zr  0.93254467  0.04886774  0.58763652     2.17500
O2204       O  0.91457388  0.01125231  0.55238841    -0.51200
O2205       O  0.97983164  0.05459688  0.59471404    -0.74400
O2206       O  0.95755252  0.06828713  0.54418746    -0.81200
O2207       O  0.89565470  0.99459095  0.64495699    -0.82900
O2208       O  0.96195787  0.11262815  0.53927028    -0.78500
O2209       O  0.91924022  0.00110776  0.60426595    -0.90200
O2210       O  0.50051330  0.08633910  0.62659194    -0.76100
O2211       O  0.96223595  0.09964330  0.59389032    -0.85600
O2212       O  0.94118684  0.05658900  0.63586114    -0.85300
O2213       O  0.90526070  0.06938916  0.56916890    -0.72100
O2214       O  0.88608389  0.02954897  0.60909007    -0.84200
Zr2215     Zr  0.89659815  0.10918347  0.64661856     2.26400
Zr2216     Zr  0.93491564  0.12032660  0.57660341     2.06300
Zr2217     Zr  0.89498734  0.03839540  0.65722893     2.10000
Zr2218     Zr  0.97051011  0.10740394  0.64175194     1.78800
O2219       O  0.84476240  0.00273250  0.66689612    -0.93000
O2220       O  0.51247744  0.14804837  0.62966384    -0.40800
O2221       O  0.92482216  0.08934867  0.66409057    -0.77400
O2222       O  0.94364746  0.12913615  0.62514720    -0.96100
O2223       O  0.88862699  0.10183489  0.59834426    -0.89400
O2224       O  0.86684665  0.05844484  0.64038458    -0.92300
C2225       C  0.49956349  0.06769940  0.60928007     1.01500
C2226       C  0.90563420  0.98595805  0.62532697     1.14400
C2227       C  0.96679271  0.09224793  0.53135693     1.05200
O2228       O  0.97816312  0.16568745  0.56514902    -0.94400
O2229       O  0.92877261  0.16192537  0.58673686    -0.90200
O2230       O  0.90726982  0.15533985  0.62860869    -0.83300
C2231       C  0.91838306  0.16988975  0.60671696     1.11800
O2232       O  0.84297179  0.01329632  0.55706922    -0.96400
Zr2233     Zr  0.85949407  0.05119116  0.59195380     1.88900
O2234       O  0.84614642  0.09729379  0.64296630    -0.73100
O2235       O  0.90944633  0.12094891  0.53542940    -0.52300
O2236       O  0.84637739  0.06752111  0.55068883    -0.97000
O2237       O  0.81604071  0.00714121  0.60607511    -0.54200
O2238       O  0.82614059  0.06662633  0.60680463    -0.73600
C2239       C  0.82522938  0.08239455  0.62628922     0.98800
O2240       O  0.90594665  0.15009012  0.67619888    -0.62400
O2241       O  0.91017426  0.02055504  0.69607595    -0.57200
O2242       O  0.88895020  0.09750156  0.69567252    -0.93900
O2243       O  0.89204640  0.05706012  0.70201163    -0.92300
O2244       O  0.98591653  0.09429068  0.68360093    -0.92700
O2245       O  0.99080172  0.14551053  0.67639470    -0.91400
C2246       C  0.88986829  0.07854324  0.71106134     1.17600
H2247       H  0.95069144  0.04661876  0.64291524     0.33600
H2248       H  0.95479250  0.14967005  0.62868352     0.44400
H2249       H  0.84891604  0.05096260  0.65045895     0.37900
H2250       H  0.90217651  0.06516714  0.54975502     0.34400
H2251       H  0.52859962  0.14587650  0.63691434     0.26200
H2252       H  0.92140789  0.14070059  0.52807148     0.32100
H2253       H  0.82499709  0.05791665  0.55114864     0.38100
H2254       H  0.46531857  0.07840734  0.69477373     0.32500
H2255       H  0.89477476  0.00020235  0.69852674     0.31400
H2256       H  0.84576246  0.99068948  0.68172688     0.33100
H2257       H  0.80916376  0.01245299  0.62284579     0.32000
H2258       H  0.97600852  0.15136630  0.67886440     0.36000
H2259       H  0.88809088  0.14389649  0.68708234     0.28800
H2260       H  0.93193423  0.01129037  0.54504702     0.33000
H2261       H  0.82333093  0.00912073  0.55185413     0.35900
H2262       H  0.92718590  0.01946381  0.68947656     0.28500
H2263       H  0.92074975  0.15205650  0.68959480     0.41300
H2264       H  0.98680773  0.17455305  0.58309516     0.31400
H2265       H  0.51387020  0.14675584  0.60947968     0.39000
H2266       H  0.82318662  0.99435659  0.61270655     0.30900
H2267       H  0.91201156  0.10837768  0.52202635     0.30900
H2268       H  0.90786976  0.01874340  0.53725640     0.31200
Zr2269     Zr  0.56324413  0.12152454  0.08394282     2.17500
O2270       O  0.52580686  0.10063863  0.04877363    -0.51200
O2271       O  0.56993076  0.08042202  0.08867096    -0.74400
O2272       O  0.58407812  0.11794059  0.04064831    -0.81200
O2273       O  0.50913195  0.10098813  0.14240658    -0.82900
O2274       O  0.62723314  0.15948489  0.03618538    -0.78500
O2275       O  0.51564353  0.08665173  0.10011895    -0.90200
O2276       O  0.60625542  0.09337831  0.11952936    -0.76100
O2277       O  0.61432137  0.14478297  0.08896866    -0.85600
O2278       O  0.57163079  0.11941070  0.13178794    -0.85300
O2279       O  0.58117558  0.16925112  0.06634545    -0.72100
O2280       O  0.54212798  0.14586659  0.10761376    -0.84200
Zr2281     Zr  0.62034039  0.21718470  0.14434656     2.26400
Zr2282     Zr  0.63247035  0.19310365  0.07346667     2.06300
Zr2283     Zr  0.55232087  0.14551795  0.15541522     2.10000
Zr2284     Zr  0.62269475  0.14271782  0.13625032     1.78800
O2285       O  0.51657031  0.15896167  0.16895624    -0.93000
O2286       O  0.66797484  0.14809282  0.11879597    -0.40800
O2287       O  0.60350703  0.16887294  0.15999285    -0.77400
O2288       O  0.64209135  0.19204131  0.12159178    -0.96100
O2289       O  0.61180295  0.21840079  0.09649823    -0.89400
O2290       O  0.56920438  0.19360977  0.13929203    -0.92300
C2291       C  0.58694219  0.07522487  0.10278194     1.01500
C2292       C  0.50060473  0.08369679  0.12174210     1.14400
C2293       C  0.60808268  0.13387901  0.02817733     1.05200
O2294       O  0.67850642  0.19917640  0.05757254    -0.94400
O2295       O  0.67430638  0.24014779  0.08431481    -0.90200
O2296       O  0.66797289  0.25237165  0.12749913    -0.83300
C2297       C  0.68258703  0.25714969  0.10528352     1.11800
O2298       O  0.52037255  0.17106998  0.05879750    -0.96400
Zr2299     Zr  0.56066065  0.19378301  0.09097972     1.88900
O2300       O  0.60603128  0.25431351  0.13909367    -0.73100
O2301       O  0.63065043  0.22095214  0.03490714    -0.52300
O2302       O  0.57335676  0.22070180  0.04811682    -0.97000
O2303       O  0.51608007  0.19116012  0.10718718    -0.54200
O2304       O  0.57424885  0.24228354  0.10389608    -0.73600
C2305       C  0.59041393  0.25962241  0.12262720     0.98800
O2306       O  0.65198488  0.25124783  0.17927909    -0.62400
O2307       O  0.53566201  0.11094632  0.19306581    -0.57200
O2308       O  0.61172497  0.20965890  0.19415345    -0.93900
O2309       O  0.57299551  0.16490131  0.20053480    -0.92300
O2310       O  0.61156645  0.11465397  0.17825617    -0.92700
O2311       O  0.66133094  0.16064046  0.17013323    -0.91400
C2312       C  0.59413367  0.18874311  0.20968782     1.17600
H2313       H  0.56244139  0.09975258  0.13830324     0.33600
H2314       H  0.66268247  0.20189660  0.12485148     0.44400
H2315       H  0.56114536  0.20328607  0.14984621     0.37900
H2316       H  0.57681379  0.16835266  0.04700940     0.34400
H2317       H  0.66675005  0.12931652  0.12251523     0.26200
H2318       H  0.65107702  0.23307710  0.02916953     0.32100
H2319       H  0.59131774  0.23905884  0.05221298     0.38100
H2320       H  0.59669496  0.11760607  0.18756519     0.32500
H2321       H  0.51518895  0.10541529  0.19619823     0.31400
H2322       H  0.50083650  0.14146302  0.17771718     0.33100
H2323       H  0.52193339  0.20539629  0.12237705     0.32000
H2324       H  0.65820104  0.17416835  0.18169377     0.36000
H2325       H  0.66987902  0.24996257  0.17920318     0.28800
H2326       H  0.52665848  0.08370450  0.04153348     0.33000
H2327       H  0.51699034  0.18673338  0.05252099     0.35900
H2328       H  0.53494446  0.09336501  0.18544884     0.28500
H2329       H  0.65785239  0.27077169  0.17225324     0.41300
H2330       H  0.68806791  0.19767353  0.07435821     0.31400
H2331       H  0.66646386  0.14858571  0.09857977     0.39000
H2332       H  0.50533211  0.17215071  0.11630661     0.30900
H2333       H  0.62156442  0.20673640  0.01980679     0.30900
H2334       H  0.53293296  0.11474522  0.03356849     0.31200
Zr2335     Zr  0.62766370  0.06687741  0.91674667     2.17500
O2336       O  0.60659321  0.03715056  0.95738244    -0.51200
O2337       O  0.58610766  0.07203681  0.90691029    -0.74400
O2338       O  0.62882428  0.09679641  0.95637462    -0.81200
O2339       O  0.60743686  0.00465584  0.86565531    -0.82900
O2340       O  0.67240274  0.13841521  0.95618168    -0.78500
O2341       O  0.59351366  0.01543644  0.90630367    -0.90200
O2342       O  0.59754202  0.10240391  0.87061510    -0.76100
O2343       O  0.65209548  0.11679734  0.90495891    -0.85600
O2344       O  0.62406178  0.06867060  0.86788981    -0.85300
O2345       O  0.67674732  0.08656729  0.93248069    -0.72100
O2346       O  0.65115573  0.04286405  0.89669085    -0.84200
Zr2347     Zr  0.72152399  0.11427410  0.85187664     2.26400
Zr2348     Zr  0.70138245  0.13632937  0.91886499     2.06300
Zr2349     Zr  0.64921565  0.04650698  0.84784094     2.10000
Zr2350     Zr  0.64757403  0.11852784  0.85679719     1.78800
O2351       O  0.66058501  0.00873193  0.83686552    -0.93000
O2352       O  0.64779669  0.16286312  0.86944385    -0.40800
O2353       O  0.67270201  0.09634550  0.83662844    -0.77400
O2354       O  0.69753168  0.13904005  0.87025908    -0.96100
O2355       O  0.72500526  0.11207285  0.90039268    -0.89400
O2356       O  0.69768365  0.06437007  0.86295013    -0.92300
C2357       C  0.57991181  0.08561484  0.88908273     1.01500
C2358       C  0.59081097  0.99789728  0.88657559     1.14400
C2359       C  0.64712212  0.12197754  0.96613587     1.05200
O2360       O  0.70922317  0.18493307  0.92557942    -0.94400
O2361       O  0.74849425  0.17496222  0.90371374    -0.90200
O2362       O  0.76061855  0.16180426  0.86353355    -0.83300
C2363       C  0.76568534  0.17952790  0.88339473     1.11800
O2364       O  0.67730743  0.02766267  0.94909331    -0.96400
Zr2365     Zr  0.69973046  0.06217213  0.91186881     1.88900
O2366       O  0.75820971  0.10007803  0.85883434    -0.73100
O2367       O  0.73084349  0.14033264  0.95855784    -0.52300
O2368       O  0.72999374  0.07722231  0.95283047    -0.97000
O2369       O  0.69317494  0.01490552  0.89969847    -0.54200
O2370       O  0.74706111  0.07251549  0.89715593    -0.73600
C2371       C  0.76365400  0.08602590  0.87695022     0.98800
O2372       O  0.75116765  0.14951104  0.81701832    -0.62400
O2373       O  0.61149776  0.02542615  0.81290564    -0.57200
O2374       O  0.71515873  0.09489038  0.80541246    -0.93900
O2375       O  0.66733387  0.06246518  0.80160392    -0.92300
O2376       O  0.62003457  0.10243978  0.81423244    -0.92700
O2377       O  0.66905329  0.15531607  0.82140197    -0.91400
C2378       C  0.69242034  0.07914614  0.79122101     1.17600
H2379       H  0.60422210  0.05845282  0.86167902     0.33600
H2380       H  0.70777338  0.15900378  0.86458695     0.44400
H2381       H  0.70648363  0.05461943  0.85373112     0.37900
H2382       H  0.67698260  0.08515239  0.95223991     0.34400
H2383       H  0.62923109  0.16023202  0.86242853     0.26200
H2384       H  0.74145686  0.16122422  0.96303736     0.32100
H2385       H  0.74850519  0.09412351  0.94706369     0.38100
H2386       H  0.62747164  0.09105009  0.80465374     0.32500
H2387       H  0.60676888  0.00505198  0.81109075     0.31400
H2388       H  0.66476218  0.01074949  0.81692351     0.33100
H2389       H  0.70728614  0.01847840  0.88484769     0.32000
H2390       H  0.68050190  0.14923166  0.80996906     0.36000
H2391       H  0.76222848  0.14159746  0.80758906     0.28800
H2392       H  0.59089248  0.04080735  0.96322178     0.33000
H2393       H  0.69065796  0.02029472  0.95300813     0.35900
H2394       H  0.59413581  0.02443548  0.82140969     0.28500
H2395       H  0.73754723  0.14922147  0.80308936     0.41300
H2396       H  0.70069366  0.18850429  0.90908995     0.31400
H2397       H  0.64556947  0.16204475  0.88966528     0.39000
H2398       H  0.67408059  0.00468864  0.89054052     0.30900
H2399       H  0.71695704  0.13141033  0.97387396     0.30900
H2400       H  0.62153426  0.04619958  0.97184906     0.31200
Zr2401     Zr  0.56911730  0.44636245  0.08017533     2.17500
O2402       O  0.58553756  0.48097872  0.04262389    -0.51200
O2403       O  0.52269687  0.44348156  0.08508233    -0.74400
O2404       O  0.54373078  0.42382462  0.03783852    -0.81200
O2405       O  0.60660706  0.50352899  0.13542541    -0.82900
O2406       O  0.53743314  0.37846328  0.03626061    -0.78500
O2407       O  0.58661671  0.49623314  0.09287369    -0.90200
O2408       O  0.99560872  0.40412562  0.11516689    -0.76100
O2409       O  0.53826344  0.39616025  0.08810720    -0.85600
O2410       O  0.55917953  0.44179343  0.12832069    -0.85300
O2411       O  0.59570259  0.42367303  0.06443350    -0.72100
O2412       O  0.61490626  0.46597669  0.10281955    -0.84200
Zr2413     Zr  0.60136061  0.38753022  0.14491601     2.26400
Zr2414     Zr  0.56484850  0.37330221  0.07411481     2.06300
Zr2415     Zr  0.60478109  0.45974264  0.15095463     2.10000
Zr2416     Zr  0.52852859  0.39139510  0.13570677     1.78800
O2417       O  0.65486832  0.49448873  0.16234533    -0.93000
O2418       O  0.98558499  0.34307441  0.11869112    -0.40800
O2419       O  0.57365828  0.40946548  0.15873216    -0.77400
O2420       O  0.55487081  0.36756636  0.12242979    -0.96100
O2421       O  0.61055524  0.39230268  0.09672478    -0.89400
O2422       O  0.63256988  0.43792174  0.13711822    -0.92300
C2423       C  0.99775621  0.42373747  0.09854846     1.01500
C2424       C  0.59930085  0.51203372  0.11395655     1.14400
C2425       C  0.53328606  0.39867966  0.02693019     1.05200
O2426       O  0.52081047  0.32708351  0.06749780    -0.94400
O2427       O  0.57065591  0.33221151  0.08661491    -0.90200
O2428       O  0.58971129  0.33975628  0.12959814    -0.83300
C2429       C  0.57970775  0.32459219  0.10767981     1.11800
O2430       O  0.66011845  0.47923165  0.05284367    -0.96400
Zr2431     Zr  0.64075887  0.44244029  0.08851604     1.88900
O2432       O  0.65192400  0.39886001  0.14376329    -0.73100
O2433       O  0.58796082  0.36793947  0.03303313    -0.52300
O2434       O  0.65455825  0.42456904  0.04837042    -0.97000
O2435       O  0.68537855  0.48565206  0.10244330    -0.54200
O2436       O  0.67113449  0.42459931  0.10489706    -0.73600
C2437       C  0.67222290  0.41088218  0.12583424     0.98800
O2438       O  0.59394412  0.34846587  0.17559834    -0.62400
O2439       O  0.59118241  0.48131284  0.18825945    -0.57200
O2440       O  0.60115700  0.39884104  0.19395600    -0.93900
O2441       O  0.60203293  0.44168047  0.19715323    -0.92300
O2442       O  0.51289112  0.40787265  0.17554276    -0.92700
O2443       O  0.50882288  0.35562611  0.17212563    -0.91400
C2444       C  0.60062385  0.41914764  0.20787334     1.17600
H2445       H  0.55002371  0.45263953  0.13412677     0.33600
H2446       H  0.54319038  0.34729265  0.12671561     0.44400
H2447       H  0.65026216  0.44565112  0.14757356     0.37900
H2448       H  0.59920436  0.42654286  0.04491873     0.34400
H2449       H  0.96852352  0.34300727  0.12686525     0.26200
H2450       H  0.60433242  0.36603290  0.04000688     0.32100
H2451       H  0.67572866  0.43275765  0.05005392     0.38100
H2452       H  0.02812279  0.41591069  0.18542048     0.32500
H2453       H  0.60735988  0.50144880  0.18987774     0.31400
H2454       H  0.65843885  0.51286341  0.15407342     0.33100
H2455       H  0.69209921  0.48008080  0.11900314     0.32000
H2456       H  0.52602284  0.35813187  0.18219637     0.36000
H2457       H  0.61079686  0.35671688  0.18813661     0.28800
H2458       H  0.56786883  0.48039526  0.03555571     0.33000
H2459       H  0.67992390  0.48292710  0.04900438     0.35900
H2460       H  0.57475099  0.48300268  0.18110351     0.28500
H2461       H  0.57713136  0.34452007  0.18728192     0.41300
H2462       H  0.50492890  0.33097534  0.07182532     0.31400
H2463       H  0.98429013  0.34617051  0.09884472     0.39000
H2464       H  0.67908654  0.49912046  0.10934250     0.30900
H2465       H  0.57403479  0.34847227  0.02587955     0.30900
H2466       H  0.59159810  0.47231573  0.02782629     0.31200
Zr2467     Zr  0.95514473  0.37731668  0.90871641     2.17500
O2468       O  0.94331327  0.39957866  0.94669603    -0.51200
O2469       O  0.00321006  0.41715411  0.90362716    -0.74400
O2470       O  0.98010268  0.37623521  0.95111908    -0.81200
O2471       O  0.92289274  0.40124014  0.85109357    -0.82900
O2472       O  0.97553359  0.33163734  0.95359397    -0.78500
O2473       O  0.94208917  0.41314554  0.89423421    -0.90200
O2474       O  0.52075257  0.40237403  0.87447016    -0.76100
O2475       O  0.98041085  0.35172731  0.90128309    -0.85600
O2476       O  0.96631235  0.38094309  0.86067502    -0.85300
O2477       O  0.92269191  0.32904717  0.92387244    -0.72100
O2478       O  0.91048721  0.35603748  0.88372584    -0.84200
Zr2479     Zr  0.91306885  0.28370825  0.84411522     2.26400
Zr2480     Zr  0.94786524  0.30317369  0.91459123     2.06300
Zr2481     Zr  0.92171747  0.35766369  0.83571371     2.10000
Zr2482     Zr  0.99180687  0.35563422  0.85396351     1.78800
O2483       O  0.87688020  0.35415881  0.81953598    -0.93000
O2484       O  0.52596103  0.34982113  0.88150414    -0.40800
O2485       O  0.94690269  0.33187161  0.82930625    -0.77400
O2486       O  0.95951585  0.30606568  0.86683773    -0.96100
O2487       O  0.90239047  0.28141860  0.89176680    -0.89400
O2488       O  0.88817253  0.30986786  0.85042991    -0.92300
C2489       C  0.52094688  0.42099448  0.89156606     1.01500
C2490       C  0.93080575  0.41732420  0.87259908     1.14400
C2491       C  0.98493504  0.35735479  0.96271383     1.05200
O2492       O  0.98835939  0.29580182  0.92454992    -0.94400
O2493       O  0.93715414  0.25467596  0.90239620    -0.90200
O2494       O  0.91534845  0.24224873  0.86057779    -0.83300
C2495       C  0.92535934  0.23696750  0.88228729     1.11800
O2496       O  0.86322224  0.33263654  0.93157159    -0.96400
Zr2497     Zr  0.87823058  0.30816559  0.89850356     1.88900
O2498       O  0.86218409  0.24626945  0.84913083    -0.73100
O2499       O  0.92042280  0.27474293  0.95396295    -0.52300
O2500       O  0.85870454  0.27993219  0.94016697    -0.97000
O2501       O  0.83876063  0.31411201  0.88093777    -0.54200
O2502       O  0.84333850  0.26006040  0.88412296    -0.73600
C2503       C  0.84164602  0.24197398  0.86581644     0.98800
O2504       O  0.92825687  0.26157699  0.80845098    -0.62400
O2505       O  0.95074723  0.39409486  0.80164299    -0.57200
O2506       O  0.89810277  0.28664276  0.79772848    -0.93900
O2507       O  0.91467408  0.33435224  0.79056917    -0.92300
O2508       O  0.00799325  0.38407778  0.81205511    -0.92700
O2509       O  0.01231673  0.33576136  0.82158869    -0.91400
C2510       C  0.90453889  0.30815988  0.78199299     1.17600
H2511       H  0.97760252  0.40084040  0.85502066     0.33600
H2512       H  0.96896969  0.29498927  0.86308516     0.44400
H2513       H  0.87067073  0.30160729  0.83961888     0.37900
H2514       H  0.91892287  0.32895984  0.94330699     0.34400
H2515       H  0.54367243  0.36585916  0.87327045     0.26200
H2516       H  0.90461197  0.25668473  0.94592804     0.32100
H2517       H  0.86214790  0.26345538  0.93800943     0.38100
H2518       H  0.48794630  0.37711085  0.80784213     0.32500
H2519       H  0.93719564  0.39932732  0.79309984     0.31400
H2520       H  0.86973398  0.33929053  0.80484304     0.33100
H2521       H  0.83000210  0.29982531  0.86584523     0.32000
H2522       H  0.99563584  0.31717481  0.81554489     0.36000
H2523       H  0.93926615  0.27708393  0.79496700     0.28800
H2524       H  0.96221996  0.41516723  0.95351096     0.33000
H2525       H  0.84247485  0.31906882  0.93520243     0.35900
H2526       H  0.96436389  0.41151872  0.81219760     0.28500
H2527       H  0.94331695  0.25853433  0.81701105     0.41300
H2528       H  0.00114371  0.30353456  0.90831095     0.31400
H2529       H  0.52631856  0.35591422  0.90081796     0.39000
H2530       H  0.84846747  0.33307774  0.87164196     0.30900
H2531       H  0.93330746  0.26876245  0.96272933     0.30900
H2532       H  0.93595794  0.38496146  0.96145989     0.31200
Zr2533     Zr  0.88502953  0.44546870  0.07906852     2.17500
O2534       O  0.90280764  0.43122492  0.03915383    -0.51200
O2535       O  0.92663326  0.49289275  0.08586313    -0.74400
O2536       O  0.88384803  0.47173629  0.03828071    -0.81200
O2537       O  0.90629612  0.40582381  0.12986776    -0.82900
O2538       O  0.84061469  0.47062118  0.03841785    -0.78500
O2539       O  0.92172618  0.43286173  0.09093474    -0.90200
O2540       O  0.92219219  0.01669442  0.12933166    -0.76100
O2541       O  0.86196421  0.47249316  0.09023261    -0.85600
O2542       O  0.88943320  0.45236213  0.12774166    -0.85300
O2543       O  0.83580340  0.41627264  0.06414564    -0.72100
O2544       O  0.86159568  0.39848139  0.09971600    -0.84200
Zr2545     Zr  0.79254178  0.40276973  0.14541919     2.26400
Zr2546     Zr  0.81248330  0.44290090  0.07736430     2.06300
Zr2547     Zr  0.86431258  0.40558751  0.14843826     2.10000
Zr2548     Zr  0.86702521  0.48006859  0.13820612     1.78800
O2549       O  0.85229131  0.35653813  0.16014454    -0.93000
O2550       O  0.87354971  0.02994577  0.13763614    -0.40800
O2551       O  0.84193232  0.43332398  0.15886863    -0.77400
O2552       O  0.81649754  0.45084996  0.12596363    -0.96100
O2553       O  0.78865939  0.39583648  0.09696299    -0.89400
O2554       O  0.81528666  0.37525776  0.13442902    -0.92300
C2555       C  0.93780675  0.01675079  0.10897677     1.01500
C2556       C  0.92402529  0.41751220  0.10996418     1.14400
C2557       C  0.86552345  0.47819937  0.02810018     1.05200
O2558       O  0.80771122  0.48586455  0.07533160    -0.94400
O2559       O  0.76426952  0.43205857  0.09025026    -0.90200
O2560       O  0.75360273  0.41134260  0.13240055    -0.83300
C2561       C  0.74760236  0.42124138  0.11108721     1.11800
O2562       O  0.83327859  0.35596185  0.04750403    -0.96400
Zr2563     Zr  0.81254338  0.36970634  0.08545177     1.88900
O2564       O  0.75508467  0.35185426  0.13914223    -0.73100
O2565       O  0.78389852  0.42122360  0.03606542    -0.52300
O2566       O  0.78101495  0.35526411  0.04538432    -0.97000
O2567       O  0.81829385  0.32841196  0.09649215    -0.54200
O2568       O  0.76480941  0.33431818  0.10037631    -0.73600
C2569       C  0.74865847  0.33206030  0.12080063     0.98800
O2570       O  0.76405475  0.40400977  0.18424060    -0.62400
O2571       O  0.90206776  0.42239495  0.18332149    -0.57200
O2572       O  0.80298615  0.39928138  0.19380340    -0.93900
O2573       O  0.84780312  0.40429613  0.19534646    -0.92300
O2574       O  0.89564876  0.49276386  0.18009040    -0.92700
O2575       O  0.84819915  0.49820064  0.17407063    -0.91400
C2576       C  0.82501119  0.40180141  0.20695374     1.17600
H2577       H  0.90941115  0.46214735  0.13352492     0.33600
H2578       H  0.80646587  0.46096051  0.13142012     0.44400
H2579       H  0.80635946  0.35695508  0.14385016     0.37900
H2580       H  0.83516623  0.41395266  0.04441241     0.34400
H2581       H  0.89039420  0.04514910  0.14778250     0.26200
H2582       H  0.76466592  0.40629511  0.04279581     0.32100
H2583       H  0.76452732  0.35775831  0.05099456     0.38100
H2584       H  0.89864058  0.97517081  0.19501411     0.32500
H2585       H  0.90527855  0.40590789  0.18641988     0.31400
H2586       H  0.87094598  0.35674733  0.15951191     0.33100
H2587       H  0.80280467  0.31697182  0.10990414     0.32000
H2588       H  0.83438044  0.48075178  0.18436277     0.36000
H2589       H  0.76516917  0.42306452  0.18346440     0.28800
H2590       H  0.91884529  0.44949020  0.03181385     0.33000
H2591       H  0.81853850  0.33589813  0.04259870     0.35900
H2592       H  0.91997235  0.43723246  0.17427700     0.28500
H2593       H  0.74364298  0.38966226  0.18006402     0.41300
H2594       H  0.79534983  0.48276843  0.05910159     0.31400
H2595       H  0.87929339  0.03381582  0.11808083     0.39000
H2596       H  0.83639903  0.33667630  0.10729210     0.30900
H2597       H  0.78055635  0.43640985  0.02834904     0.30900
H2598       H  0.88724130  0.42476364  0.02527860     0.31200
Zr2599     Zr  0.94604037  0.05644024  0.91488377     2.17500
O2600       O  0.98369530  0.07711166  0.94989436    -0.51200
O2601       O  0.94022135  0.00873515  0.91315443    -0.74400
O2602       O  0.92590369  0.03580592  0.95909580    -0.81200
O2603       O  0.99814439  0.08412343  0.85529007    -0.82900
O2604       O  0.88446159  0.03769983  0.96437651    -0.78500
O2605       O  0.99327631  0.06756061  0.89902461    -0.90200
O2606       O  0.91269536  0.48658114  0.86989318    -0.76100
O2607       O  0.89477893  0.02889797  0.91209531    -0.85600
O2608       O  0.93548788  0.04076795  0.86825389    -0.85300
O2609       O  0.92916619  0.08837315  0.92934424    -0.72100
O2610       O  0.96661087  0.09924757  0.88772179    -0.84200
Zr2611     Zr  0.88688304  0.08890387  0.85086188     2.26400
Zr2612     Zr  0.87765521  0.06097881  0.92438210     2.06300
Zr2613     Zr  0.95438977  0.08356660  0.84127138     2.10000
Zr2614     Zr  0.88420600  0.01314274  0.86605892     1.78800
O2615       O  0.99080575  0.13003868  0.82307023    -0.93000
O2616       O  0.85119598  0.47483584  0.86804123    -0.40800
O2617       O  0.90303022  0.05571676  0.83859279    -0.77400
O2618       O  0.86569170  0.04490749  0.87758921    -0.96100
O2619       O  0.89767025  0.10399368  0.89751071    -0.89400
O2620       O  0.93832577  0.11665928  0.85382464    -0.92300
C2621       C  0.93094555  0.48785152  0.88783994     1.01500
C2622       C  0.00754435  0.07764907  0.87669035     1.14400
C2623       C  0.90321014  0.03086677  0.97251876     1.05200
O2624       O  0.83063622  0.02149451  0.93824894    -0.94400
O2625       O  0.83717240  0.06830402  0.91407803    -0.90200
O2626       O  0.84103758  0.08083516  0.86911514    -0.83300
C2627       C  0.82805307  0.07477909  0.89238489     1.11800
O2628       O  0.99229425  0.15170588  0.92962031    -0.95200
Zr2629     Zr  0.94889616  0.13051372  0.90114512     1.88900
O2630       O  0.89975137  0.13992398  0.85201720    -0.73100
O2631       O  0.88168669  0.09239194  0.96263811    -0.52300
O2632       O  0.93883235  0.14814628  0.94369916    -0.97000
O2633       O  0.99086022  0.17241676  0.88141903    -0.54200
O2634       O  0.93114076  0.16161452  0.88719950    -0.73600
C2635       C  0.91449549  0.16138169  0.86830856     0.98800
O2636       O  0.85319679  0.08495566  0.81503253    -0.62400
O2637       O  0.96907542  0.06051873  0.80627769    -0.57200
O2638       O  0.89381529  0.08554976  0.80132993    -0.93900
O2639       O  0.93274127  0.07931797  0.79663178    -0.92300
O2640       O  0.89206324  0.99192209  0.82485293    -0.92700
O2641       O  0.84277616  0.98986493  0.83529426    -0.91400
C2642       C  0.91141255  0.08104692  0.78678984     1.17600
H2643       H  0.94438501  0.02963448  0.86262225     0.33600
H2644       H  0.84492799  0.03430131  0.87531120     0.44400
H2645       H  0.94604017  0.13309976  0.84172083     0.37900
H2646       H  0.93429486  0.09385060  0.94832885     0.34400
H2647       H  0.85207370  0.45855588  0.85915561     0.26200
H2648       H  0.87612855  0.10600489  0.95486704     0.32100
H2649       H  0.94701765  0.16915078  0.94093794     0.38100
H2650       H  0.92640039  0.52136934  0.80412466     0.32500
H2651       H  0.98955482  0.07465357  0.80215333     0.31400
H2652       H  0.98998870  0.12707021  0.80292913     0.33100
H2653       H  0.98347811  0.17775561  0.86518295     0.32000
H2654       H  0.83947968  0.00566594  0.82930767     0.36000
H2655       H  0.83498447  0.06665935  0.81852110     0.28800
H2656       H  0.98592716  0.06077523  0.95628781     0.33000
H2657       H  0.99495304  0.17044618  0.93625118     0.35900
H2658       H  0.96965359  0.04447177  0.81573742     0.28500
H2659       H  0.84862023  0.10044954  0.81899519     0.41300
H2660       H  0.83004714  0.00395876  0.93068965     0.31400
H2661       H  0.85437889  0.47306103  0.88777649     0.39000
H2662       H  0.00282500  0.16467963  0.87364507     0.30900
H2663       H  0.86551246  0.07990282  0.97502749     0.30900
H2664       H  0.97508467  0.08193951  0.96567661     0.31200
C2665       C  0.87263306  0.49559803  0.00276495    -0.16300
C2666       C  0.89829442  0.01538584  0.99872183    -0.31400
H2667       H  0.85641353  0.50059127  0.99543410     0.12800
H2668       H  0.91357385  0.00856748  0.00468942     0.13300
C2669       C  0.92592066  0.44206718  0.87154558    -0.16300
C2670       C  0.93530306  0.46283483  0.89076668    -0.31400
H2671       H  0.91470801  0.44357540  0.85359173     0.12800
H2672       H  0.94745228  0.46213319  0.90831594     0.13300
C2673       C  0.92409341  0.20893427  0.88461508    -0.16300
C2674       C  0.91260279  0.18790846  0.86533409    -0.31400
H2675       H  0.93383660  0.20588122  0.90291866     0.12800
H2676       H  0.90213964  0.19035177  0.84728450     0.13300
C2677       C  0.00269492  0.36457064  0.98817522    -0.16300
C2678       C  0.51493041  0.39301988  0.00216463    -0.31400
H2679       H  0.00541875  0.34736731  0.99680059     0.12800
H2680       H  0.51531389  0.41120504  0.99191097     0.13300
C2681       C  0.97251939  0.42764599  0.09501662    -0.16300
C2682       C  0.94857071  0.41240128  0.10999016    -0.31400
H2683       H  0.97418331  0.44422017  0.08108759     0.12800
H2684       H  0.94745389  0.39644775  0.12443642     0.13300
C2685       C  0.71984535  0.42070497  0.10977496    -0.16300
C2686       C  0.69901492  0.40939936  0.12918399    -0.31400
H2687       H  0.71659318  0.43033507  0.09152840     0.12800
H2688       H  0.70174667  0.39933429  0.14736333     0.13300
C2689       C  0.79310613  0.20725428  0.88322023    -0.16300
C2690       C  0.81412831  0.21418187  0.86429167    -0.31400
H2691       H  0.79623508  0.22230759  0.89975933     0.12800
H2692       H  0.81141176  0.19902340  0.84800208     0.13300
C2693       C  0.54693067  0.44985593  0.89392719    -0.16300
C2694       C  0.56812974  0.46035098  0.87512183    -0.31400
H2695       H  0.54757596  0.46365749  0.91074207     0.12800
H2696       H  0.56707300  0.44685925  0.85783973     0.13300
C2697       C  0.79093581  0.08537400  0.87432636    -0.16300
C2698       C  0.80059307  0.07510761  0.89447935    -0.31400
H2699       H  0.80362739  0.09409738  0.85573771     0.12800
H2700       H  0.78832827  0.06726498  0.91342192     0.13300
C2701       C  0.53839748  0.08827010  0.86961435    -0.16300
C2702       C  0.55001039  0.08050884  0.88997833    -0.31400
H2703       H  0.55155204  0.09972641  0.85194570     0.12800
H2704       H  0.53672229  0.06873543  0.90748047     0.13300
C2705       C  0.96766982  0.04127695  0.10581363    -0.16300
C2706       C  0.97992238  0.06223001  0.12478035    -0.31400
H2707       H  0.97995278  0.04180813  0.08774237     0.12800
H2708       H  0.96756670  0.06127327  0.14295658     0.13300
C2709       C  0.72064891  0.30481564  0.12327395    -0.16300
C2710       C  0.71094261  0.28405692  0.10360253    -0.31400
H2711       H  0.70746832  0.30209350  0.14129731     0.12800
H2712       H  0.72388699  0.28710891  0.08531341     0.13300
C2713       C  0.59109622  0.28764100  0.12522516    -0.16300
C2714       C  0.57851332  0.29633480  0.10635167    -0.31400
H2715       H  0.60274223  0.30163115  0.14245279     0.12800
H2716       H  0.56763788  0.28263115  0.08872379     0.13300
C2717       C  0.58309840  0.04591846  0.09958924    -0.16300
C2718       C  0.59410253  0.03529554  0.11771974    -0.31400
H2719       H  0.56926981  0.03213795  0.08315078     0.12800
H2720       H  0.60674202  0.04883037  0.13484693     0.13300
C2721       C  0.61386394  0.12116685  0.00325323    -0.16300
C2722       C  0.63968855  0.13397183  0.99050168    -0.31400
H2723       H  0.59680038  0.10037985  0.99581747     0.12800
H2724       H  0.65664665  0.15464942  0.99829396     0.13300
C2725       C  0.89037425  0.08268253  0.74124209    -0.16300
C2726       C  0.90706011  0.07615050  0.75683931    -0.31400
H2727       H  0.87949729  0.09337383  0.75023739     0.12800
H2728       H  0.91945365  0.06754594  0.74681953     0.13300
C2729       C  0.50201439  0.12558442  0.49475667    -0.16300
C2730       C  0.98463213  0.09636784  0.50606563    -0.31400
H2731       H  0.50066313  0.14364001  0.50354115     0.12800
H2732       H  0.98786500  0.07875547  0.49931042     0.13300
C2733       C  0.59092431  0.16902678  0.25636073    -0.16300
C2734       C  0.59873222  0.19213150  0.24003583    -0.31400
H2735       H  0.58218056  0.14785827  0.24677708     0.12800
H2736       H  0.60931299  0.21372302  0.24888955     0.13300
C2737       C  0.67352988  0.08186047  0.74665864    -0.16300
C2738       C  0.69495578  0.08198716  0.76110478    -0.31400
H2739       H  0.65428643  0.07875273  0.75745566     0.12800
H2740       H  0.71510326  0.08668411  0.75117569     0.13300
C2741       C  0.79805866  0.08309245  0.62995124    -0.16300
C2742       C  0.77647176  0.07061954  0.61147490    -0.31400
H2743       H  0.79582128  0.09405743  0.64787670     0.12800
H2744       H  0.77925854  0.06049863  0.59316461     0.13300
C2745       C  0.52465523  0.06351895  0.60778099    -0.16300
C2746       C  0.54477237  0.07373885  0.62761898    -0.31400
H2747       H  0.52631850  0.05145447  0.59048426     0.12800
H2748       H  0.54251524  0.08505837  0.64525904     0.13300
C2749       C  0.61757101  0.99987250  0.51091376    -0.16300
C2750       C  0.60379745  0.48080806  0.48766486    -0.31400
H2751       H  0.59757378  0.99647339  0.50172292     0.12800
H2752       H  0.58658641  0.48434752  0.49513586     0.13300
C2753       C  0.58576230  0.03205027  0.40494993    -0.16300
C2754       C  0.59130412  0.05068917  0.38447004    -0.31400
H2755       H  0.57469134  0.03330582  0.42324745     0.12800
H2756       H  0.60161832  0.04863854  0.36594789     0.13300
C2757       C  0.58529222  0.29398917  0.36560483    -0.16300
C2758       C  0.57234398  0.27325981  0.38467493    -0.31400
H2759       H  0.59738808  0.29147413  0.34884827     0.12800
H2760       H  0.56096721  0.27630241  0.40179458     0.13300
C2761       C  0.59645369  0.39537734  0.25301981    -0.16300
C2762       C  0.59594869  0.41610665  0.23791817    -0.31400
H2763       H  0.60311048  0.38101883  0.24383534     0.12800
H2764       H  0.59109269  0.43141443  0.24804291     0.13300
C2765       C  0.91840030  0.32206211  0.73386779    -0.16300
C2766       C  0.90081837  0.30213675  0.75200316    -0.31400
H2767       H  0.93492792  0.34300773  0.74161478     0.12800
H2768       H  0.88526174  0.28052693  0.74494621     0.13300
C2769       C  0.78643051  0.20775597  0.61361668    -0.16300
C2770       C  0.77744552  0.18769300  0.63362634    -0.31400
H2771       H  0.77257614  0.20393515  0.59594053     0.12800
H2772       H  0.79134878  0.19077089  0.65106470     0.13300
C2773       C  0.53927899  0.45044242  0.58822887    -0.16300
C2774       C  0.52911688  0.42774772  0.60501715    -0.31400
H2775       H  0.52500629  0.45198434  0.57332825     0.12800
H2776       H  0.54335575  0.42700953  0.62050604     0.13300
C2777       C  0.90731844  0.20731456  0.62340190    -0.16300
C2778       C  0.91916339  0.19777530  0.60430130    -0.31400
H2779       H  0.89684273  0.19445498  0.64147710     0.12800
H2780       H  0.92933828  0.21052206  0.58608007     0.13300
C2781       C  0.91595093  0.44802102  0.59335193    -0.16300
C2782       C  0.90903473  0.46037068  0.61381489    -0.31400
H2783       H  0.92684721  0.46040444  0.57515507     0.12800
H2784       H  0.89893409  0.44801681  0.63227175     0.13300
C2785       C  0.80299872  0.39921640  0.25319390    -0.16300
C2786       C  0.82570640  0.40393076  0.23734727    -0.31400
H2787       H  0.78170613  0.39096190  0.24416301     0.12800
H2788       H  0.84632629  0.41032931  0.24718733     0.13300
C2789       C  0.87826558  0.37870852  0.48482469    -0.16300
C2790       C  0.86407634  0.35383645  0.49889105    -0.31400
H2791       H  0.89955494  0.39535389  0.49161681     0.12800
H2792       H  0.84276153  0.33734237  0.49197762     0.13300
C2793       C  0.94194075  0.01888168  0.37121986    -0.16300
C2794       C  0.96136855  0.03069144  0.39154462    -0.31400
H2795       H  0.94314086  0.03189872  0.35366967     0.12800
H2796       H  0.96058120  0.01752998  0.40880687     0.13300
C2797       C  0.71466768  0.28184557  0.38612045    -0.16300
C2798       C  0.69329811  0.27247368  0.36718360    -0.31400
H2799       H  0.71194278  0.26887906  0.40417268     0.12800
H2800       H  0.69575679  0.28555438  0.34930284     0.13300
C2801       C  0.95318177  0.41304754  0.38358604    -0.16300
C2802       C  0.96398126  0.40206047  0.36523289    -0.31400
H2803       H  0.96657283  0.42614856  0.40056856     0.12800
H2804       H  0.95092553  0.38964071  0.34780310     0.13300
C2805       C  0.70793009  0.39742427  0.37257438    -0.16300
C2806       C  0.69892941  0.40908181  0.39225964    -0.31400
H2807       H  0.69418322  0.38630807  0.35506380     0.12800
H2808       H  0.71243923  0.41972218  0.41003320     0.13300
Zr2809     Zr  0.88516253  0.92267302  0.40600349     2.17500
O2810       O  0.91541735  0.95985688  0.43932567    -0.51200
O2811       O  0.92406932  0.91343922  0.39336926    -0.74400
O2812       O  0.88800676  0.90257021  0.44994712    -0.81200
O2813       O  0.90142172  0.97984785  0.35096870    -0.82900
O2814       O  0.84441618  0.86256241  0.45801331    -0.78500
O2815       O  0.91704211  0.97244929  0.39187219    -0.90200
O2816       O  0.90710934  0.87663268  0.36231641    -0.76100
O2817       O  0.85911732  0.87149197  0.40082169    -0.85600
O2818       O  0.88372848  0.91379116  0.35786845    -0.85300
O2819       O  0.83825839  0.90670833  0.42616546    -0.72100
O2820       O  0.86026346  0.94500088  0.38618553    -0.84200
Zr2821     Zr  0.78582478  0.86882918  0.35089563     2.26400
Zr2822     Zr  0.81193755  0.85525904  0.41949618     2.06300
Zr2823     Zr  0.85831035  0.93546367  0.33808536     2.10000
Zr2824     Zr  0.85731861  0.86245816  0.35291304     1.78800
O2825       O  0.84633482  0.97178046  0.32341479    -0.93000
O2826       O  0.85606551  0.81919719  0.37034726    -0.40800
O2827       O  0.83275335  0.88440468  0.33226038    -0.77400
O2828       O  0.80968213  0.84524576  0.37125317    -0.96100
O2829       O  0.78734568  0.87747007  0.39907577    -0.89400
O2830       O  0.81131510  0.91990545  0.35646661    -0.92300
C2831       C  0.92713041  0.89586524  0.37741114     1.01500
C2832       C  0.91877561  0.98838700  0.37144894     1.14400
C2833       C  0.87075866  0.88086028  0.46468802     1.05200
O2834       O  0.81000009  0.80933174  0.42727725    -0.94400
O2835       O  0.76140403  0.81766650  0.41117360    -0.90200
O2836       O  0.74562142  0.82729866  0.37139555    -0.83300
C2837       C  0.74187272  0.81209532  0.39284157     1.11800
O2838       O  0.83833538  0.96806128  0.43727538    -0.96400
Zr2839     Zr  0.81309645  0.92827086  0.40479116     1.88900
O2840       O  0.74948235  0.88346134  0.35637359    -0.73100
O2841       O  0.78539948  0.85181767  0.46143279    -0.52300
O2842       O  0.78749549  0.91612975  0.44855933    -0.97000
O2843       O  0.81715968  0.97369305  0.39009178    -0.54200
O2844       O  0.76421530  0.91567568  0.39178294    -0.73600
C2845       C  0.74578997  0.89986454  0.37337121     0.98800
O2846       O  0.76041480  0.82798441  0.31924182    -0.62400
O2847       O  0.89316212  0.94903212  0.30066526    -0.57200
O2848       O  0.78730075  0.88293061  0.30305713    -0.93900
O2849       O  0.83465082  0.91511061  0.29480364    -0.92300
O2850       O  0.87845001  0.87100092  0.30710081    -0.92700
O2851       O  0.83193680  0.82090988  0.32248097    -0.91400
C2852       C  0.80871260  0.89762089  0.28686017     1.17600
H2853       H  0.90280347  0.92236107  0.34982791     0.33600
H2854       H  0.79830532  0.82466623  0.36809245     0.44400
H2855       H  0.80185328  0.92862631  0.34683728     0.37900
H2856       H  0.84034873  0.91131355  0.44554477     0.34400
H2857       H  0.87078638  0.81736435  0.35944227     0.26200
H2858       H  0.78533494  0.83594435  0.47186888     0.32100
H2859       H  0.76839012  0.89904278  0.44456919     0.38100
H2860       H  0.89653671  0.88987664  0.30842538     0.32500
H2861       H  0.89459207  0.96680036  0.29295362     0.31400
H2862       H  0.86132082  0.99014122  0.33173839     0.33100
H2863       H  0.80213973  0.96837115  0.37582931     0.32000
H2864       H  0.81564987  0.82269276  0.31507721     0.36000
H2865       H  0.77405539  0.83150352  0.30394678     0.28800
H2866       H  0.93123815  0.95598797  0.44389505     0.33000
H2867       H  0.82335836  0.97186507  0.44502929     0.35900
H2868       H  0.91213470  0.95553946  0.30947926     0.28500
H2869       H  0.75934816  0.81112935  0.32869863     0.41300
H2870       H  0.80181934  0.79808498  0.41016675     0.31400
H2871       H  0.86444030  0.82450473  0.38902270     0.39000
H2872       H  0.83567074  0.98357658  0.37988066     0.30900
H2873       H  0.79830032  0.86951412  0.47202981     0.30900
H2874       H  0.90372551  0.95555402  0.45630331     0.31200
Zr2875     Zr  0.92733468  0.86808801  0.58703251     2.17500
O2876       O  0.96100357  0.88773471  0.54866294    -0.51200
O2877       O  0.92147317  0.90948258  0.59444593    -0.74400
O2878       O  0.90107555  0.86667732  0.54465481    -0.81200
O2879       O  0.98680912  0.89021982  0.64069568    -0.82900
O2880       O  0.85850856  0.82394391  0.54452650    -0.78500
O2881       O  0.97720103  0.90426522  0.59988448    -0.90200
O2882       O  0.89026885  0.89898674  0.63018424    -0.76100
O2883       O  0.87707312  0.84555979  0.59793267    -0.85600
O2884       O  0.92418268  0.87196971  0.63582639    -0.85300
O2885       O  0.90612021  0.81887401  0.57131306    -0.72100
O2886       O  0.95020901  0.84386076  0.60751440    -0.84200
Zr2887     Zr  0.87576228  0.77521903  0.65167766     2.26400
Zr2888     Zr  0.85607108  0.79609211  0.58424339     2.06300
Zr2889     Zr  0.94529822  0.84624242  0.65630031     2.10000
Zr2890     Zr  0.87400151  0.84988011  0.64604238     1.78800
O2891       O  0.98296904  0.83404841  0.66435334    -0.93000
O2892       O  0.82981409  0.84915380  0.63211932    -0.40800
O2893       O  0.89522607  0.82433274  0.66674395    -0.77400
O2894       O  0.85212093  0.79975464  0.63273749    -0.96100
O2895       O  0.87895012  0.77179040  0.60323309    -0.89400
O2896       O  0.92598906  0.79762825  0.64104029    -0.92300
C2897       C  0.90721446  0.91594051  0.61144738     1.01500
C2898       C  0.99392784  0.90743684  0.62030732     1.14400
C2899       C  0.87633278  0.84844197  0.53403979     1.05200
O2900       O  0.81071200  0.79618125  0.57935229    -0.94400
O2901       O  0.81739164  0.74860968  0.59815156    -0.90200
O2902       O  0.83076235  0.73425450  0.63657279    -0.83300
C2903       C  0.81314924  0.73014658  0.61698582     1.11800
O2904       O  0.96049874  0.81482305  0.55235202    -0.96400
Zr2905     Zr  0.92889221  0.79493459  0.59219702     1.88900
O2906       O  0.88730213  0.73662910  0.64605429    -0.73100
O2907       O  0.84604674  0.76347747  0.54539091    -0.52300
O2908       O  0.91206710  0.76175184  0.55316795    -0.97000
O2909       O  0.97562653  0.79913938  0.60199160    -0.54200
O2910       O  0.91562247  0.74737331  0.60801965    -0.73600
C2911       C  0.90115722  0.73074790  0.62786127     0.98800
O2912       O  0.83937743  0.75497115  0.68807017    -0.62400
O2913       O  0.96558923  0.88126527  0.69380624    -0.57200
O2914       O  0.89529472  0.77865762  0.69744759    -0.93900
O2915       O  0.92854946  0.82622408  0.70208600    -0.92300
O2916       O  0.88821888  0.87836727  0.68824928    -0.92700
O2917       O  0.83771207  0.83155543  0.68236490    -0.91400
C2918       C  0.91156105  0.80101898  0.71203708     1.17600
H2919       H  0.93447702  0.89187772  0.64189453     0.33600
H2920       H  0.83198672  0.78982398  0.63807057     0.44400
H2921       H  0.93503570  0.78829359  0.65034404     0.37900
H2922       H  0.90788657  0.81836211  0.55159326     0.34400
H2923       H  0.82966023  0.86481352  0.64300111     0.26200
H2924       H  0.82787648  0.76096693  0.53743425     0.32100
H2925       H  0.89090888  0.74970389  0.55585009     0.38100
H2926       H  0.90937448  0.89131590  0.68657791     0.32500
H2927       H  0.98679334  0.88931291  0.69300558     0.31400
H2928       H  0.00017142  0.85252353  0.66977047     0.33100
H2929       H  0.97234076  0.78698552  0.61835611     0.32000
H2930       H  0.83309143  0.81134805  0.68510515     0.36000
H2931       H  0.84509099  0.77077634  0.70166345     0.28800
H2932       H  0.95799210  0.90315316  0.54099726     0.33000
H2933       H  0.96804473  0.80155866  0.54855699     0.35900
H2934       H  0.96258266  0.89740211  0.68838460     0.28500
H2935       H  0.82139669  0.75285102  0.68003397     0.41300
H2936       H  0.80416086  0.79622057  0.59839231     0.31400
H2937       H  0.83350967  0.85645663  0.61304828     0.39000
H2938       H  0.98782547  0.81920515  0.60871067     0.30900
H2939       H  0.86110081  0.77493782  0.53161870     0.30900
H2940       H  0.95331082  0.87226497  0.53453428     0.31200
Zr2941     Zr  0.57067535  0.93885977  0.42278563     2.17500
O2942       O  0.53780754  0.92434159  0.46193373    -0.51200
O2943       O  0.57743892  0.98671363  0.41890434    -0.74400
O2944       O  0.59753909  0.96364622  0.46401177    -0.81200
O2945       O  0.51128932  0.90644777  0.36986827    -0.82900
O2946       O  0.63870076  0.96085912  0.46499413    -0.78500
O2947       O  0.52269089  0.92910653  0.41154301    -0.90200
O2948       O  0.59958585  0.50127940  0.37062473    -0.76100
O2949       O  0.62106161  0.96489656  0.41356100    -0.85600
O2950       O  0.57468647  0.94845505  0.37460367    -0.85300
O2951       O  0.58819961  0.90754977  0.43685826    -0.72100
O2952       O  0.54577012  0.89314918  0.39944187    -0.84200
Zr2953     Zr  0.61909922  0.89576426  0.35585803     2.26400
Zr2954     Zr  0.63865097  0.93311192  0.42535257     2.06300
Zr2955     Zr  0.55205698  0.90293858  0.35118525     2.10000
Zr2956     Zr  0.62514070  0.97483554  0.36612015     1.78800
O2957       O  0.51349073  0.85520792  0.33750132    -0.93000
O2958       O  0.65910255  0.50968546  0.37478721    -0.40800
O2959       O  0.60285768  0.92885840  0.34304722    -0.77400
O2960       O  0.64417705  0.94328859  0.37708361    -0.96100
O2961       O  0.61424873  0.88656759  0.40376823    -0.89400
O2962       O  0.56836793  0.87029108  0.36442269    -0.92300
C2963       C  0.57981279  0.49998462  0.38673297     1.01500
C2964       C  0.50539916  0.91669471  0.39141705     1.14400
C2965       C  0.62178841  0.96931030  0.47476607     1.05200
O2966       O  0.68679205  0.97370474  0.43436128    -0.94400
O2967       O  0.67794629  0.92549014  0.41094949    -0.90200
O2968       O  0.66709420  0.90472281  0.36860797    -0.83300
C2969       C  0.68368646  0.91501902  0.38963064     1.11800
O2970       O  0.52655572  0.84769697  0.44830962    -0.96400
Zr2971     Zr  0.56365251  0.86215358  0.41297793     1.88900
O2972       O  0.60390884  0.84409865  0.36109037    -0.73100
O2973       O  0.64058974  0.90541627  0.46400192    -0.52300
O2974       O  0.57797029  0.84640021  0.45382980    -0.97000
O2975       O  0.51729486  0.82087133  0.39962023    -0.54200
O2976       O  0.57426497  0.82554471  0.39795773    -0.73600
C2977       C  0.58881835  0.82349080  0.37804437     0.98800
O2978       O  0.64664509  0.89298051  0.31692011    -0.62400
O2979       O  0.53359640  0.92213416  0.31635972    -0.57200
O2980       O  0.60560764  0.89251333  0.30765866    -0.93900
O2981       O  0.56939540  0.90302335  0.30434549    -0.92300
O2982       O  0.61326773  0.99282027  0.32526512    -0.92700
O2983       O  0.66223435  0.99462920  0.33060817    -0.91400
C2984       C  0.58844407  0.89775762  0.29365341     1.17600
H2985       H  0.56526286  0.95912989  0.36934178     0.33600
H2986       H  0.66441577  0.95306447  0.37214157     0.44400
H2987       H  0.55889533  0.85254793  0.35392087     0.37900
H2988       H  0.58565348  0.90442415  0.45642852     0.34400
H2989       H  0.65926130  0.52678880  0.36687593     0.26200
H2990       H  0.66123193  0.91547151  0.46939875     0.32100
H2991       H  0.56368447  0.82554352  0.45534134     0.38100
H2992       H  0.59546113  0.46821080  0.30158419     0.32500
H2993       H  0.51279667  0.90762612  0.31458790     0.31400
H2994       H  0.49873658  0.84960918  0.35213752     0.33100
H2995       H  0.51577676  0.80450887  0.41038111     0.32000
H2996       H  0.66357986  0.97783689  0.32377012     0.36000
H2997       H  0.66494520  0.91173647  0.31652605     0.28800
H2998       H  0.53940588  0.94251079  0.46901725     0.33000
H2999       H  0.52147147  0.86316653  0.44849726     0.35900
H3000       H  0.53399043  0.93915878  0.32500265     0.28500
H3001       H  0.65231148  0.87856593  0.32199266     0.41300
H3002       H  0.68559930  0.99098637  0.42927181     0.31400
H3003       H  0.65447138  0.51008256  0.39443959     0.39000
H3004       H  0.51988732  0.81633481  0.38043756     0.30900
H3005       H  0.63073712  0.90935855  0.47929982     0.30900
H3006       H  0.54688594  0.91840211  0.47624176     0.31200
Zr3007     Zr  0.61691699  0.54533960  0.57671302     2.17500
O3008       O  0.60211547  0.56257872  0.53719052    -0.51200
O3009       O  0.57446586  0.49836266  0.57908162    -0.74400
O3010       O  0.61823508  0.51884595  0.53544485    -0.81200
O3011       O  0.59323060  0.57946376  0.63375807    -0.82900
O3012       O  0.66217604  0.52144763  0.53495041    -0.78500
O3013       O  0.58196988  0.56070066  0.59035286    -0.90200
O3014       O  0.58279167  0.97824760  0.62676434    -0.76100
O3015       O  0.64091370  0.51846215  0.58388377    -0.85600
O3016       O  0.61014363  0.53183331  0.62411467    -0.85300
O3017       O  0.66681200  0.57656792  0.56445089    -0.72100
O3018       O  0.63834826  0.58873671  0.60366461    -0.84200
Zr3019     Zr  0.70605202  0.58046085  0.64665371     2.26400
Zr3020     Zr  0.69081686  0.54970453  0.57380599     2.06300
Zr3021     Zr  0.63323520  0.57525975  0.65105796     2.10000
Zr3022     Zr  0.63335171  0.50416153  0.63015325     1.78800
O3023       O  0.64223767  0.62168728  0.66905825    -0.93000
O3024       O  0.63783987  0.97284201  0.62320932    -0.40800
O3025       O  0.65629110  0.54746373  0.65732491    -0.77400
O3026       O  0.68426242  0.53540615  0.62104559    -0.96100
O3027       O  0.71237373  0.59366793  0.59939644    -0.89400
O3028       O  0.68260686  0.60785821  0.63983336    -0.92300
C3029       C  0.56527273  0.97900310  0.60903338     1.01500
C3030       C  0.57807997  0.57284877  0.61177593     1.14400
C3031       C  0.63687497  0.51272688  0.52504881     1.05200
O3032       O  0.70018559  0.51133139  0.55969689    -0.94400
O3033       O  0.73755251  0.55700551  0.58873975    -0.90200
O3034       O  0.74673974  0.57556147  0.63203364    -0.83300
C3035       C  0.75345777  0.56664376  0.61029641     1.11800
O3036       O  0.66868101  0.63760396  0.55636548    -0.96400
Zr3037     Zr  0.68762850  0.61968048  0.59197339     1.88900
O3038       O  0.74431605  0.63156280  0.64561425    -0.73100
O3039       O  0.72047070  0.58004602  0.53622789    -0.52300
O3040       O  0.72093752  0.64185480  0.55367032    -0.97000
O3041       O  0.68032921  0.65821958  0.61015965    -0.54200
O3042       O  0.73427670  0.65254044  0.61019023    -0.73600
C3043       C  0.75052762  0.65299035  0.62959472     0.98800
O3044       O  0.72890593  0.56899147  0.68405719    -0.62400
O3045       O  0.59275211  0.54939994  0.68252771    -0.57200
O3046       O  0.69597989  0.58349903  0.69539994    -0.93900
O3047       O  0.64985892  0.57505547  0.69770996    -0.92300
O3048       O  0.60027364  0.48374808  0.66879657    -0.92700
O3049       O  0.64752715  0.48019487  0.66395246    -0.91400
C3050       C  0.67333429  0.57896732  0.70894987     1.17600
H3051       H  0.58988635  0.52098034  0.62887728     0.33600
H3052       H  0.69428307  0.52496478  0.62491499     0.44400
H3053       H  0.69074815  0.62478809  0.65151068     0.37900
H3054       H  0.66839311  0.58136493  0.54518828     0.34400
H3055       H  0.62437904  0.95534161  0.63362221     0.26200
H3056       H  0.74019287  0.59119104  0.54402399     0.32100
H3057       H  0.73563167  0.63587404  0.55589740     0.38100
H3058       H  0.60526814  0.00878747  0.69511262     0.32500
H3059       H  0.58862903  0.56431485  0.68984257     0.31400
H3060       H  0.63676432  0.61812546  0.68868978     0.33100
H3061       H  0.69267607  0.66549815  0.62672117     0.32000
H3062       H  0.66345965  0.49618897  0.67433019     0.36000
H3063       H  0.72871652  0.55104626  0.67841614     0.28800
H3064       H  0.58412101  0.54549721  0.53061128     0.33000
H3065       H  0.68226333  0.65868223  0.55542767     0.35900
H3066       H  0.57589365  0.53692329  0.67080042     0.28500
H3067       H  0.74954803  0.58425117  0.68392726     0.41300
H3068       H  0.69199747  0.49700373  0.57467672     0.31400
H3069       H  0.62903064  0.96965099  0.60473673     0.39000
H3070       H  0.66028630  0.64819854  0.61734282     0.30900
H3071       H  0.72165434  0.56641997  0.52311411     0.30900
H3072       H  0.61662299  0.56611172  0.52274715     0.31200
Zr3073     Zr  0.55576998  0.60872633  0.41062796     2.17500
O3074       O  0.57087921  0.58895434  0.44791806    -0.51200
O3075       O  0.50899448  0.56714328  0.40207599    -0.74400
O3076       O  0.52899225  0.60451828  0.45241976    -0.81200
O3077       O  0.59560879  0.59112903  0.35564104    -0.82900
O3078       O  0.52371644  0.64419069  0.45547979    -0.78500
O3079       O  0.57043816  0.57452710  0.39554434    -0.90200
O3080       O  0.98654285  0.58146288  0.36701718    -0.76100
O3081       O  0.52684040  0.63036433  0.40257173    -0.85600
O3082       O  0.54889861  0.60729759  0.36221136    -0.85300
O3083       O  0.58216317  0.65658855  0.42942068    -0.72100
O3084       O  0.60312291  0.63476975  0.39105277    -0.84200
Zr3085     Zr  0.59550229  0.70461037  0.35108540     2.26400
Zr3086     Zr  0.55367721  0.67866414  0.41946604     2.06300
Zr3087     Zr  0.59608456  0.63475985  0.34264137     2.10000
Zr3088     Zr  0.52003230  0.62908630  0.35464581     1.78800
O3089       O  0.64612855  0.64853017  0.33286088    -0.93000
O3090       O  0.97860565  0.63462546  0.36812593    -0.40800
O3091       O  0.56699241  0.65616503  0.33461084    -0.77400
O3092       O  0.54711037  0.67847030  0.37052879    -0.96100
O3093       O  0.60106077  0.70526038  0.39979359    -0.89400
O3094       O  0.62441883  0.68299935  0.35973762    -0.92300
C3095       C  0.98679149  0.56311497  0.38381000     1.01500
C3096       C  0.58493920  0.57285762  0.37514650     1.14400
C3097       C  0.51879920  0.61922746  0.46391843     1.05200
O3098       O  0.51014895  0.68144971  0.42800556    -0.94400
O3099       O  0.56232465  0.72724790  0.40935437    -0.90200
O3100       O  0.58368682  0.74060567  0.36735272    -0.83300
C3101       C  0.57314412  0.74517394  0.38929384     1.11800
O3102       O  0.64300995  0.66053678  0.44459412    -0.96400
Zr3103     Zr  0.62903497  0.68282185  0.40878892     1.88900
O3104       O  0.64586115  0.74265653  0.35971624    -0.73100
O3105       O  0.57703226  0.70392883  0.46177952    -0.52300
O3106       O  0.64081532  0.70861675  0.45252921    -0.97000
O3107       O  0.67329494  0.68255540  0.39662021    -0.54200
O3108       O  0.66253363  0.73236959  0.39839099    -0.73600
C3109       C  0.66499767  0.74904185  0.37862242     0.98800
O3110       O  0.59816856  0.73662426  0.31429226    -0.62400
O3111       O  0.58084689  0.60084369  0.30413750    -0.57200
O3112       O  0.59769604  0.69567945  0.30115072    -0.93900
O3113       O  0.59852423  0.65371815  0.29724750    -0.92300
O3114       O  0.50688991  0.60085301  0.31231168    -0.92700
O3115       O  0.50124387  0.64747197  0.31942620    -0.91400
C3116       C  0.59807781  0.67541075  0.28679671     1.17600
H3117       H  0.53957494  0.58776252  0.35514863     0.33600
H3118       H  0.53639618  0.68810608  0.36615859     0.44400
H3119       H  0.64287388  0.69316595  0.35049237     0.37900
H3120       H  0.58412937  0.65568281  0.44904773     0.34400
H3121       H  0.96216148  0.61929541  0.35766372     0.26200
H3122       H  0.59342806  0.72261932  0.45567755     0.32100
H3123       H  0.66222444  0.71974505  0.45307649     0.38100
H3124       H  0.02424460  0.60862144  0.30107626     0.32500
H3125       H  0.59600823  0.59541600  0.30216840     0.31400
H3126       H  0.65240973  0.64209124  0.34913999     0.33100
H3127       H  0.68782537  0.69578270  0.41007878     0.32000
H3128       H  0.51838618  0.66054824  0.30831047     0.36000
H3129       H  0.57916403  0.73571292  0.31422810     0.28800
H3130       H  0.55282663  0.57325208  0.45599526     0.33000
H3131       H  0.63301361  0.63974041  0.43974576     0.35900
H3132       H  0.56352042  0.58312781  0.31068949     0.28500
H3133       H  0.61213932  0.75642156  0.32065963     0.41300
H3134       H  0.49955187  0.67571781  0.41035611     0.31400
H3135       H  0.97506615  0.62756616  0.38727199     0.39000
H3136       H  0.67965772  0.69299047  0.37897814     0.30900
H3137       H  0.56319400  0.70899551  0.47016202     0.30900
H3138       H  0.57887920  0.60430386  0.46216342     0.31200
Zr3139     Zr  0.94037606  0.55586324  0.57854475     2.17500
O3140       O  0.92536276  0.52303318  0.53928396    -0.51200
O3141       O  0.98822627  0.56237559  0.58172945    -0.74400
O3142       O  0.96506608  0.58355172  0.53665976    -0.81200
O3143       O  0.90797320  0.49865603  0.63550374    -0.82900
O3144       O  0.96008847  0.62346611  0.53539254    -0.78500
O3145       O  0.92636425  0.50626189  0.59198260    -0.90200
O3146       O  0.51123233  0.59652632  0.61300813    -0.76100
O3147       O  0.96617729  0.60653262  0.58676092    -0.85600
O3148       O  0.95214419  0.56202312  0.62649559    -0.85300
O3149       O  0.90837281  0.57305712  0.56530876    -0.72100
O3150       O  0.89613613  0.53287593  0.60426257    -0.84200
Zr3151     Zr  0.90083123  0.60742435  0.64654755     2.26400
Zr3152     Zr  0.93398561  0.62384883  0.57560945     2.06300
Zr3153     Zr  0.90795733  0.54118599  0.65223396     2.10000
Zr3154     Zr  0.97875537  0.61261741  0.63374194     1.78800
O3155       O  0.86137091  0.50218492  0.66781124    -0.93000
O3156       O  0.51625953  0.65653947  0.60842909    -0.40800
O3157       O  0.93437743  0.59186551  0.65922261    -0.77400
O3158       O  0.94684563  0.63118089  0.62306258    -0.96100
O3159       O  0.88897413  0.60029490  0.59914352    -0.89400
O3160       O  0.87482143  0.55655633  0.63920382    -0.92300
C3161       C  0.50958655  0.57703527  0.59607559     1.01500
C3162       C  0.91505449  0.49046407  0.61347241     1.14400
C3163       C  0.96952548  0.60741868  0.52564614     1.05200
O3164       O  0.97472253  0.67221607  0.56821239    -0.94400
O3165       O  0.92251485  0.66092149  0.58875404    -0.90200
O3166       O  0.90313078  0.65152917  0.63166249    -0.83300
C3167       C  0.91181956  0.66678287  0.60983469     1.11800
O3168       O  0.84673549  0.51203961  0.55585934    -0.96400
Zr3169     Zr  0.86427499  0.54968969  0.59113538     1.88900
O3170       O  0.84989342  0.59462525  0.64364772    -0.73100
O3171       O  0.90730990  0.62686931  0.53654366    -0.52300
O3172       O  0.84680011  0.56438663  0.55173128    -0.97000
O3173       O  0.82405887  0.50347465  0.60607402    -0.54200
O3174       O  0.82988893  0.56203433  0.60883525    -0.73600
C3175       C  0.82880347  0.57839744  0.62752006     0.98800
O3176       O  0.91868865  0.64471332  0.68233932    -0.62400
O3177       O  0.93187845  0.52672494  0.68601785    -0.57200
O3178       O  0.88729727  0.58953703  0.69294629    -0.93900
O3179       O  0.90706424  0.56083264  0.69787640    -0.92300
O3180       O  0.99586845  0.59926086  0.67432670    -0.92700
O3181       O  0.99915918  0.65131434  0.66780551    -0.91400
C3182       C  0.89688173  0.57643387  0.70773310     1.17600
H3183       H  0.96310324  0.55285267  0.63160828     0.33600
H3184       H  0.95663127  0.65158267  0.62733898     0.44400
H3185       H  0.85747176  0.54740386  0.65024285     0.37900
H3186       H  0.90426308  0.56992072  0.54587638     0.34400
H3187       H  0.53425800  0.65574210  0.61092594     0.26200
H3188       H  0.88923362  0.62468573  0.54454499     0.32100
H3189       H  0.82544164  0.55269180  0.55278487     0.38100
H3190       H  0.48490194  0.59306576  0.68323957     0.32500
H3191       H  0.91767716  0.50636682  0.69034981     0.31400
H3192       H  0.86411004  0.50035935  0.68764066     0.33100
H3193       H  0.81643066  0.50789258  0.62286185     0.32000
H3194       H  0.98211903  0.65087485  0.67647702     0.36000
H3195       H  0.93016587  0.63980834  0.69485763     0.28800
H3196       H  0.94357575  0.52533029  0.53151120     0.33000
H3197       H  0.82629578  0.50648281  0.55253449     0.35900
H3198       H  0.94751428  0.52579016  0.67586826     0.28500
H3199       H  0.93352993  0.66264564  0.67339019     0.41300
H3200       H  0.98534987  0.67769682  0.58584908     0.31400
H3201       H  0.51208054  0.65309676  0.58854292     0.39000
H3202       H  0.83328922  0.49253818  0.61273592     0.30900
H3203       H  0.91838739  0.64736540  0.53088545     0.30900
H3204       H  0.91847048  0.53175368  0.52549889     0.31200
Zr3205     Zr  0.57499531  0.62771570  0.07925841     2.17500
O3206       O  0.54143969  0.61100886  0.04069561    -0.51200
O3207       O  0.58184278  0.58660694  0.08384546    -0.74400
O3208       O  0.60177130  0.62814255  0.03697550    -0.81200
O3209       O  0.51879473  0.60401078  0.13735721    -0.82900
O3210       O  0.64161777  0.67299289  0.03452239    -0.78500
O3211       O  0.52547015  0.59211965  0.09387498    -0.90200
O3212       O  0.61875761  0.59977067  0.11413561    -0.76100
O3213       O  0.62600518  0.65362745  0.08508207    -0.85600
O3214       O  0.58376908  0.62304653  0.12676734    -0.85300
O3215       O  0.59058569  0.67679708  0.06631147    -0.72100
O3216       O  0.55282327  0.64898508  0.10658892    -0.84200
Zr3217     Zr  0.62821087  0.71872299  0.14710447     2.26400
Zr3218     Zr  0.64192735  0.70257577  0.07346782     2.06300
Zr3219     Zr  0.56264805  0.64521730  0.15395736     2.10000
Zr3220     Zr  0.63494982  0.64829294  0.13152344     1.78800
O3221       O  0.52274588  0.64963167  0.17309100    -0.93000
O3222       O  0.67752935  0.65284970  0.10807515    -0.40800
O3223       O  0.61378983  0.67006172  0.15951343    -0.77400
O3224       O  0.65185724  0.69806743  0.12059020    -0.96100
O3225       O  0.61927271  0.72335538  0.10006994    -0.89400
O3226       O  0.57719281  0.69364386  0.14183591    -0.92300
C3227       C  0.59921399  0.58164449  0.09770871     1.01500
C3228       C  0.50995911  0.58836607  0.11560875     1.14400
C3229       C  0.62570908  0.64699948  0.02540555     1.05200
O3230       O  0.69110938  0.71548581  0.06073541    -0.94400
O3231       O  0.67835016  0.75166527  0.08720827    -0.90200
O3232       O  0.66928673  0.76185229  0.13037113    -0.83300
C3233       C  0.68397229  0.76853660  0.10812488     1.11800
O3234       O  0.52878980  0.67828552  0.06143726    -0.96400
Zr3235     Zr  0.56842347  0.69769277  0.09448242     1.88900
O3236       O  0.61409641  0.75568497  0.14835039    -0.73100
O3237       O  0.63769648  0.72926383  0.03513658    -0.52300
O3238       O  0.57944562  0.73033849  0.05582467    -0.97000
O3239       O  0.52258911  0.68873978  0.11420979    -0.54200
O3240       O  0.58169574  0.74450625  0.11377042    -0.73600
C3241       C  0.59784464  0.76113181  0.13308383     0.98800
O3242       O  0.66930555  0.73923304  0.17859060    -0.62400
O3243       O  0.55283958  0.60621647  0.18567016    -0.57200
O3244       O  0.61295523  0.71394172  0.19495163    -0.93900
O3245       O  0.57877611  0.66666486  0.19976188    -0.92300
O3246       O  0.62702741  0.61934054  0.17246006    -0.92700
O3247       O  0.67681822  0.66601881  0.16166426    -0.91400
C3248       C  0.59627356  0.69195019  0.20965148     1.17600
H3249       H  0.57518227  0.60310044  0.13226187     0.33600
H3250       H  0.67248361  0.70915017  0.12365824     0.44400
H3251       H  0.56829496  0.70148224  0.15380612     0.37900
H3252       H  0.58626821  0.67751875  0.04718381     0.34400
H3253       H  0.67903299  0.63605797  0.11435521     0.26200
H3254       H  0.64559309  0.74923375  0.04218385     0.32100
H3255       H  0.56879525  0.74076758  0.05960252     0.38100
H3256       H  0.61484150  0.62389873  0.18453274     0.32500
H3257       H  0.53814922  0.60568888  0.19852315     0.31400
H3258       H  0.50986275  0.63071123  0.18171457     0.33100
H3259       H  0.52780141  0.70119002  0.13077198     0.32000
H3260       H  0.68719663  0.68728004  0.15963242     0.36000
H3261       H  0.66515592  0.72358811  0.19175857     0.28800
H3262       H  0.54263213  0.59449711  0.03281247     0.33000
H3263       H  0.52232351  0.69270470  0.06038118     0.35900
H3264       H  0.54237353  0.58813070  0.17484416     0.28500
H3265       H  0.68583199  0.74090989  0.16776797     0.41300
H3266       H  0.69951869  0.71254916  0.07766021     0.31400
H3267       H  0.67197716  0.64862514  0.08849635     0.39000
H3268       H  0.51358201  0.66882058  0.12143833     0.30900
H3269       H  0.65227540  0.73060209  0.02167706     0.30900
H3270       H  0.55058224  0.62642730  0.02676523     0.31200
Zr3271     Zr  0.62811092  0.55642365  0.91112275     2.17500
O3272       O  0.60750030  0.52232430  0.94889694    -0.51200
O3273       O  0.58686083  0.56200136  0.90286653    -0.74400
O3274       O  0.62383193  0.58100502  0.95247135    -0.81200
O3275       O  0.60994891  0.49839203  0.85564104    -0.82900
O3276       O  0.66472375  0.62488402  0.95591085    -0.78500
O3277       O  0.59447077  0.50680226  0.89652929    -0.90200
O3278       O  0.60085432  0.59810288  0.87173223    -0.76100
O3279       O  0.65069748  0.60701812  0.90334838    -0.85600
O3280       O  0.62637353  0.56238301  0.86261828    -0.85300
O3281       O  0.67621966  0.57628172  0.92898575    -0.72100
O3282       O  0.65360290  0.53512648  0.88975748    -0.84200
Zr3283     Zr  0.72370220  0.61215267  0.85003314     2.26400
Zr3284     Zr  0.69878560  0.62704928  0.92003833     2.06300
Zr3285     Zr  0.65290117  0.54220642  0.84133363     2.10000
Zr3286     Zr  0.64934432  0.61319024  0.85547484     1.78800
O3287       O  0.66639727  0.50590822  0.83036383    -0.93000
O3288       O  0.65055440  0.65757176  0.86981461    -0.40800
O3289       O  0.67530216  0.59287635  0.83394380    -0.77400
O3290       O  0.69835115  0.63439553  0.87130006    -0.96100
O3291       O  0.72501625  0.60644679  0.89853966    -0.89400
O3292       O  0.70138961  0.56146682  0.85747860    -0.92300
C3293       C  0.58241592  0.57916797  0.88825812     1.01500
C3294       C  0.59238882  0.49047685  0.87600901     1.14400
C3295       C  0.63910999  0.60591494  0.96410050     1.05200
O3296       O  0.70494608  0.67436385  0.93068628    -0.94400
O3297       O  0.74659989  0.66738282  0.90899355    -0.90200
O3298       O  0.75907068  0.65981515  0.86630864    -0.83300
C3299       C  0.76376990  0.67488743  0.88822558     1.11800
O3300       O  0.68142567  0.52004419  0.94264913    -0.96400
Zr3301     Zr  0.70200947  0.55585471  0.90621768     1.88900
O3302       O  0.76140853  0.59902247  0.85502900    -0.73100
O3303       O  0.72330801  0.62656791  0.96192666    -0.52300
O3304       O  0.73304513  0.57273576  0.94660522    -0.97000
O3305       O  0.69837641  0.50990180  0.89341421    -0.54200
O3306       O  0.74965108  0.56816216  0.89083776    -0.73600
C3307       C  0.76666935  0.58358953  0.87161841     0.98800
O3308       O  0.75582977  0.64401053  0.81424188    -0.62400
O3309       O  0.61760117  0.52397469  0.80415792    -0.57200
O3310       O  0.71498844  0.60102857  0.80053809    -0.93900
O3311       O  0.67181596  0.55967687  0.79543555    -0.92300
O3312       O  0.62193362  0.59921713  0.81280736    -0.92700
O3313       O  0.66950426  0.65113930  0.82104413    -0.91400
C3314       C  0.69454643  0.58156147  0.78560745     1.17600
H3315       H  0.60674420  0.55262937  0.85581790     0.33600
H3316       H  0.70800887  0.65480172  0.86730994     0.44400
H3317       H  0.71116911  0.55308112  0.84759645     0.37900
H3318       H  0.67548028  0.57290989  0.94851609     0.34400
H3319       H  0.63417428  0.65728881  0.86003616     0.26200
H3320       H  0.74414659  0.63921104  0.95794592     0.32100
H3321       H  0.74841487  0.59259021  0.94204704     0.38100
H3322       H  0.62551678  0.58422989  0.80471027     0.32500
H3323       H  0.61446429  0.50445738  0.79992183     0.31400
H3324       H  0.66608086  0.50485852  0.81005367     0.33100
H3325       H  0.71001913  0.51384507  0.87644920     0.32000
H3326       H  0.68772037  0.65201241  0.81517291     0.36000
H3327       H  0.75386222  0.66149513  0.81467462     0.28800
H3328       H  0.59018220  0.52326368  0.95474274     0.33000
H3329       H  0.69675539  0.51559433  0.94762837     0.35900
H3330       H  0.59919480  0.52057592  0.81245605     0.28500
H3331       H  0.77581584  0.65055449  0.82050108     0.41300
H3332       H  0.69179148  0.67645079  0.91783094     0.31400
H3333       H  0.64444657  0.65441686  0.88930552     0.39000
H3334       H  0.67812125  0.49761911  0.88725181     0.30900
H3335       H  0.71871221  0.63763336  0.97544233     0.30900
H3336       H  0.62139073  0.53118803  0.96423284     0.31200
Zr3337     Zr  0.56441507  0.93919617  0.08327735     2.17500
O3338       O  0.58071794  0.97057229  0.04325939    -0.51200
O3339       O  0.51668824  0.93362060  0.08481394    -0.74400
O3340       O  0.54163254  0.90879643  0.04193796    -0.81200
O3341       O  0.59505969  0.99736790  0.13962287    -0.82900
O3342       O  0.55227341  0.87249652  0.03981853    -0.78500
O3343       O  0.57710581  0.98893298  0.09597507    -0.90200
O3344       O  0.99300641  0.90326300  0.11707143    -0.76100
O3345       O  0.53856852  0.88856555  0.09111652    -0.85600
O3346       O  0.54995840  0.93309036  0.13045418    -0.85300
O3347       O  0.59771899  0.92245510  0.07345357    -0.72100
O3348       O  0.60730851  0.96260833  0.11090691    -0.84200
Zr3349     Zr  0.60071771  0.88791212  0.15626585     2.26400
Zr3350     Zr  0.57199495  0.87185937  0.08346096     2.06300
Zr3351     Zr  0.59270460  0.95450389  0.15804114     2.10000
Zr3352     Zr  0.52329964  0.88246493  0.13730990     1.78800
O3353       O  0.63832614  0.99247424  0.17677684    -0.93000
O3354       O  0.98060371  0.84244415  0.11956191    -0.40800
O3355       O  0.56631424  0.90370429  0.16467440    -0.77400
O3356       O  0.55609327  0.86399103  0.13022412    -0.96100
O3357       O  0.61553614  0.89508706  0.10943059    -0.89400
O3358       O  0.62681144  0.93883359  0.14909606    -0.92300
C3359       C  0.99580377  0.92316243  0.10039847     1.01500
C3360       C  0.58818981  0.00517191  0.11742602     1.14400
C3361       C  0.54070564  0.88647059  0.03025522     1.05200
O3362       O  0.53041386  0.82456154  0.07374112    -0.94400
O3363       O  0.57925209  0.83298718  0.09772803    -0.90200
O3364       O  0.59404424  0.84081219  0.14217242    -0.83300
C3365       C  0.58675108  0.82581700  0.11988033     1.11800
O3366       O  0.66099368  0.98562548  0.06903064    -0.96400
Zr3367     Zr  0.64007696  0.94574286  0.10152571     1.88900
O3368       O  0.65289123  0.90365748  0.15645601    -0.73100
O3369       O  0.60165319  0.86928255  0.04662938    -0.52300
O3370       O  0.66018765  0.93425629  0.06150492    -0.97000
O3371       O  0.67866075  0.99030762  0.12160832    -0.54200
O3372       O  0.67273401  0.93162889  0.11889497    -0.73600
C3373       C  0.67401182  0.91786194  0.13962629     0.98800
O3374       O  0.59618450  0.85702819  0.19490192    -0.62400
O3375       O  0.56625940  0.96968114  0.18845242    -0.57200
O3376       O  0.59703223  0.89989719  0.20445692    -0.93900
O3377       O  0.58798362  0.93720069  0.20486871    -0.92300
O3378       O  0.50408657  0.89478219  0.17738557    -0.92700
O3379       O  0.49785461  0.84266740  0.16921275    -0.91400
C3380       C  0.59092146  0.91754927  0.21696109     1.17600
H3381       H  0.53875655  0.94225823  0.13480593     0.33600
H3382       H  0.54583308  0.84357347  0.13420112     0.44400
H3383       H  0.64331708  0.94817562  0.16119029     0.37900
H3384       H  0.60314354  0.92544748  0.05429610     0.34400
H3385       H  0.96380548  0.84301099  0.12761084     0.26200
H3386       H  0.61938772  0.87210033  0.05584378     0.32100
H3387       H  0.68138410  0.94477774  0.06443353     0.38100
H3388       H  0.02242971  0.91285552  0.18803553     0.32500
H3389       H  0.58056012  0.98964536  0.19409789     0.31400
H3390       H  0.63353823  0.99574165  0.19564521     0.33100
H3391       H  0.68542005  0.98440155  0.13791441     0.32000
H3392       H  0.51299856  0.84452917  0.18210860     0.36000
H3393       H  0.57717271  0.83925039  0.19257654     0.28800
H3394       H  0.56272240  0.96715831  0.03412173     0.33000
H3395       H  0.68186877  0.99194557  0.06804769     0.35900
H3396       H  0.55244916  0.97181842  0.17656176     0.28500
H3397       H  0.61071611  0.85092166  0.19180634     0.41300
H3398       H  0.51687513  0.82096252  0.08912930     0.31400
H3399       H  0.98011709  0.84658841  0.09984883     0.39000
H3400       H  0.66871133  0.00027807  0.12920393     0.30900
H3401       H  0.59141233  0.84873427  0.04085270     0.30900
H3402       H  0.58896934  0.96188508  0.03070192     0.31200
Zr3403     Zr  0.95097577  0.87548579  0.91777590     2.17500
O3404       O  0.93672991  0.89183847  0.95873844    -0.51200
O3405       O  0.99805455  0.91702318  0.91112307    -0.74400
O3406       O  0.97878301  0.87488795  0.95791023    -0.81200
O3407       O  0.91083551  0.89667660  0.86707950    -0.82900
O3408       O  0.97805145  0.83188939  0.95727064    -0.78500
O3409       O  0.93611204  0.91114045  0.90723022    -0.90200
O3410       O  0.52102541  0.91032868  0.88154330    -0.76100
O3411       O  0.97841630  0.85293946  0.90599334    -0.85600
O3412       O  0.95844085  0.88048665  0.86914232    -0.85300
O3413       O  0.92231117  0.82599910  0.93162319    -0.72100
O3414       O  0.90428951  0.85221238  0.89642802    -0.84200
Zr3415     Zr  0.90990787  0.78389329  0.84958707     2.26400
Zr3416     Zr  0.94963961  0.80339513  0.91822894     2.06300
Zr3417     Zr  0.91186381  0.85561610  0.84783326     2.10000
Zr3418     Zr  0.98619841  0.85818162  0.85806209     1.78800
O3419       O  0.86264362  0.84371365  0.83665167    -0.93000
O3420       O  0.52927595  0.85758295  0.87296688    -0.40800
O3421       O  0.93974674  0.83348095  0.83690100    -0.77400
O3422       O  0.95781787  0.80770190  0.86959826    -0.96100
O3423       O  0.90258060  0.77954298  0.89800352    -0.89400
O3424       O  0.88205658  0.80627024  0.86072628    -0.92300
C3425       C  0.52005946  0.92683433  0.90046432     1.01500
C3426       C  0.92107226  0.91360507  0.88782483     1.14400
C3427       C  0.98591978  0.85689489  0.96767498     1.05200
O3428       O  0.99326554  0.79958889  0.91892005    -0.94400
O3429       O  0.94026375  0.75570850  0.90455870    -0.90200
O3430       O  0.92137292  0.74640139  0.86147426    -0.83300
C3431       C  0.93086239  0.73990700  0.88287449     1.11800
O3432       O  0.86118545  0.82151702  0.94857730    -0.96400
Zr3433     Zr  0.87598521  0.80303095  0.90957045     1.88900
O3434       O  0.85896675  0.74636254  0.85520313    -0.73100
O3435       O  0.92801535  0.77491668  0.95940654    -0.52300
O3436       O  0.85935853  0.77012020  0.94842981    -0.97000
O3437       O  0.83598980  0.81071961  0.89760089    -0.54200
O3438       O  0.84059894  0.75622387  0.89324397    -0.73600
C3439       C  0.83875579  0.74010738  0.87295466     0.98800
O3440       O  0.90675141  0.75400528  0.81013338    -0.62400
O3441       O  0.92999386  0.89434994  0.81406706    -0.57200
O3442       O  0.90893675  0.79679042  0.80140580    -0.93900
O3443       O  0.90943580  0.83956294  0.80064382    -0.92300
O3444       O  0.00209593  0.89105200  0.81921544    -0.92700
O3445       O  0.00295409  0.84319375  0.81795263    -0.91400
C3446       C  0.90917932  0.81796019  0.78866361     1.17600
H3447       H  0.96831493  0.90053899  0.86376058     0.33600
H3448       H  0.96832203  0.79812140  0.86400037     0.44400
H3449       H  0.86387379  0.79740885  0.85098462     0.37900
H3450       H  0.91974206  0.82497989  0.95131529     0.34400
H3451       H  0.54562294  0.87353788  0.86304451     0.26200
H3452       H  0.91109830  0.75687183  0.95269948     0.32100
H3453       H  0.86300108  0.75431223  0.94303842     0.38100
H3454       H  0.48593897  0.89569368  0.81689980     0.32500
H3455       H  0.91469251  0.89958342  0.81233849     0.31400
H3456       H  0.86473299  0.86123000  0.82768893     0.33100
H3457       H  0.82657463  0.79807045  0.88151045     0.32000
H3458       H  0.98601250  0.83413652  0.80552291     0.36000
H3459       H  0.92534748  0.75407867  0.80950711     0.28800
H3460       H  0.95499263  0.90765370  0.96644605     0.33000
H3461       H  0.84051364  0.80726780  0.95170957     0.35900
H3462       H  0.94628048  0.91124606  0.82315286     0.28500
H3463       H  0.89207742  0.73400322  0.81512548     0.41300
H3464       H  0.00924349  0.81946573  0.92250894     0.31400
H3465       H  0.53325857  0.86313531  0.89258070     0.39000
H3466       H  0.84531455  0.83058437  0.89020947     0.30900
H3467       H  0.94194759  0.76894073  0.96542319     0.30900
H3468       H  0.93034147  0.87584075  0.97203038     0.31200
Zr3469     Zr  0.88545157  0.95133143  0.08448512     2.17500
O3470       O  0.89808923  0.93543898  0.04227893    -0.51200
O3471       O  0.92943629  0.99666594  0.09093153    -0.74400
O3472       O  0.88490551  0.98114925  0.04684580    -0.81200
O3473       O  0.90419680  0.90563542  0.13003864    -0.82900
O3474       O  0.84360699  0.98372901  0.05033567    -0.78500
O3475       O  0.92081579  0.93555253  0.09306530    -0.90200
O3476       O  0.91678684  0.51317856  0.12252157    -0.76100
O3477       O  0.86623030  0.98075143  0.10012724    -0.85600
O3478       O  0.89181920  0.95524855  0.13308618    -0.85300
O3479       O  0.83543623  0.92737497  0.07106773    -0.72100
O3480       O  0.85957762  0.90326081  0.10206565    -0.84200
Zr3481     Zr  0.79556663  0.91098163  0.15374949     2.26400
Zr3482     Zr  0.81582653  0.95599137  0.08930583     2.06300
Zr3483     Zr  0.86424883  0.90741024  0.15092193     2.10000
Zr3484     Zr  0.87340873  0.98528794  0.14800123     1.78800
O3485       O  0.84997231  0.85677759  0.15685213    -0.93000
O3486       O  0.86545398  0.52293018  0.12405740    -0.40800
O3487       O  0.84578952  0.93742953  0.16620061    -0.77400
O3488       O  0.82215772  0.96035215  0.13792851    -0.96100
O3489       O  0.78967009  0.90759985  0.10530878    -0.89400
O3490       O  0.81459485  0.88153149  0.13802992    -0.92300
C3491       C  0.93358030  0.51342396  0.10321663     1.01500
C3492       C  0.92217565  0.91817870  0.11050177     1.14400
C3493       C  0.86762072  0.98993488  0.03877933     1.05200
O3494       O  0.81784855  0.00245846  0.09340379    -0.94400
O3495       O  0.76875117  0.94680057  0.10547566    -0.90200
O3496       O  0.75653227  0.92034626  0.14456287    -0.83300
C3497       C  0.75155648  0.93367183  0.12556487     1.11800
O3498       O  0.82497425  0.86380972  0.04831812    -0.96400
Zr3499     Zr  0.80999448  0.87958047  0.08911262     1.88900
O3500       O  0.75518636  0.86170671  0.14618122    -0.73100
O3501       O  0.78274428  0.94172266  0.05045203    -0.52300
O3502       O  0.77886317  0.87212687  0.04984000    -0.97000
O3503       O  0.81064730  0.83468478  0.09556220    -0.54200
O3504       O  0.76206716  0.84690365  0.10443021    -0.73600
C3505       C  0.74710828  0.84358914  0.12603085     0.98800
O3506       O  0.77482469  0.91962465  0.19507689    -0.62400
O3507       O  0.90284253  0.92103100  0.18445983    -0.57200
O3508       O  0.80305647  0.89730655  0.19899714    -0.93900
O3509       O  0.84701013  0.90019514  0.19794624    -0.92300
O3510       O  0.90517936  0.99449023  0.18710156    -0.92700
O3511       O  0.86187992  0.00469107  0.18844999    -0.91400
C3512       C  0.82441812  0.89693103  0.21055485     1.17600
H3513       H  0.91192915  0.96342667  0.13805748     0.33600
H3514       H  0.81364958  0.97114413  0.14556203     0.44400
H3515       H  0.80476332  0.86263410  0.14633945     0.37900
H3516       H  0.83395348  0.92646253  0.05127985     0.34400
H3517       H  0.88222052  0.53920215  0.13331928     0.26200
H3518       H  0.78531638  0.96008777  0.04306536     0.32100
H3519       H  0.76717072  0.85088794  0.04759817     0.38100
H3520       H  0.89257712  0.47411436  0.18719388     0.32500
H3521       H  0.90609294  0.90434978  0.18525295     0.31400
H3522       H  0.85925799  0.85628354  0.17424014     0.33100
H3523       H  0.79942354  0.82610864  0.11254968     0.32000
H3524       H  0.84121661  0.99085663  0.19213555     0.36000
H3525       H  0.77627062  0.93868326  0.19254346     0.28800
H3526       H  0.91554381  0.95279016  0.03534352     0.33000
H3527       H  0.84637821  0.87451644  0.04908440     0.35900
H3528       H  0.92052753  0.93661330  0.17575393     0.28500
H3529       H  0.75385472  0.90538367  0.19454884     0.41300
H3530       H  0.81019806  0.00263548  0.11191564     0.31400
H3531       H  0.87080023  0.52533634  0.10436453     0.39000
H3532       H  0.83088582  0.84089904  0.10064966     0.30900
H3533       H  0.79117901  0.93471339  0.03629479     0.30900
H3534       H  0.88262803  0.93206109  0.02907844     0.31200
Zr3535     Zr  0.95010081  0.55624702  0.90920739     2.17500
O3536       O  0.98527640  0.57388414  0.94650319    -0.51200
O3537       O  0.94611698  0.50959403  0.90341526    -0.74400
O3538       O  0.92750657  0.53050715  0.95121732    -0.81200
O3539       O  0.00778006  0.59466309  0.85491215    -0.82900
O3540       O  0.88355217  0.52760178  0.95416544    -0.78500
O3541       O  0.99858887  0.56971860  0.89486146    -0.90200
O3542       O  0.90245723  0.98261804  0.88433592    -0.76100
O3543       O  0.89977416  0.52613127  0.90074521    -0.85600
O3544       O  0.94547129  0.54772831  0.86086508    -0.85300
O3545       O  0.92789133  0.58288550  0.92587336    -0.72100
O3546       O  0.97067459  0.60272839  0.88812978    -0.84200
Zr3547     Zr  0.89270638  0.59205055  0.84618023     2.26400
Zr3548     Zr  0.87753714  0.55305409  0.91544346     2.06300
Zr3549     Zr  0.96437069  0.59398752  0.83975492     2.10000
Zr3550     Zr  0.89502030  0.51781458  0.85289251     1.78800
O3551       O  0.99939016  0.64396048  0.82883061    -0.93000
O3552       O  0.84278263  0.97410394  0.88949193    -0.40800
O3553       O  0.91401694  0.56393184  0.83192738    -0.77400
O3554       O  0.87149598  0.54451230  0.86674726    -0.96100
O3555       O  0.89731681  0.59960530  0.89463441    -0.89400
O3556       O  0.94324043  0.62206724  0.85469492    -0.92300
C3557       C  0.92274771  0.98538425  0.90055854     1.01500
C3558       C  0.01501400  0.58396189  0.87471775     1.14400
C3559       C  0.90311310  0.52225575  0.96306390     1.05200
O3560       O  0.83218057  0.50769355  0.92047048    -0.94400
O3561       O  0.83719342  0.56027450  0.90507905    -0.90200
O3562       O  0.84458897  0.57923922  0.86220539    -0.83300
C3563       C  0.82970238  0.56962816  0.88428169     1.11800
O3564       O  0.98064953  0.64466441  0.94247241    -0.95200
Zr3565     Zr  0.94761053  0.62871109  0.90355000     1.88900
O3566       O  0.90495536  0.64297866  0.85024333    -0.73100
O3567       O  0.86953943  0.57451624  0.95644842    -0.52300
O3568       O  0.92870935  0.64331452  0.94230063    -0.97000
O3569       O  0.99435613  0.67104609  0.89375169    -0.54200
O3570       O  0.93463845  0.66285606  0.88690637    -0.73600
C3571       C  0.91943639  0.66391120  0.86721306     0.98800
O3572       O  0.86243870  0.59410120  0.80980421    -0.62400
O3573       O  0.98557481  0.57899212  0.80321450    -0.57200
O3574       O  0.90199908  0.58899985  0.79697615    -0.93900
O3575       O  0.94599958  0.59218183  0.79372453    -0.92300
O3576       O  0.91004438  0.50324382  0.81131882    -0.92700
O3577       O  0.85943892  0.49808014  0.81612153    -0.91400
C3578       C  0.92281164  0.58943808  0.78299860     1.17600
H3579       H  0.95607725  0.53846452  0.85462848     0.33600
H3580       H  0.85122366  0.53328239  0.86211128     0.44400
H3581       H  0.95136333  0.64006369  0.84481592     0.37900
H3582       H  0.93066452  0.58576282  0.94548144     0.34400
H3583       H  0.83891657  0.95636470  0.87940839     0.26200
H3584       H  0.85185717  0.55861126  0.96485174     0.32100
H3585       H  0.94068724  0.66465024  0.94297209     0.38100
H3586       H  0.90775371  0.00849440  0.81493419     0.32500
H3587       H  0.00613565  0.59433877  0.80208124     0.31400
H3588       H  0.00060773  0.64433912  0.80853240     0.33100
H3589       H  0.99327729  0.68738842  0.90222955     0.32000
H3590       H  0.85928620  0.51509095  0.80837103     0.36000
H3591       H  0.84435410  0.57514113  0.80992056     0.28800
H3592       H  0.98490799  0.55649341  0.95392828     0.33000
H3593       H  0.99121324  0.63388635  0.94057957     0.35900
H3594       H  0.98596815  0.56190861  0.81043246     0.28500
H3595       H  0.85669406  0.60815729  0.81621895     0.41300
H3596       H  0.82464431  0.50191059  0.90156487     0.31400
H3597       H  0.85036132  0.97241485  0.90749326     0.39000
H3598       H  0.99418763  0.67411056  0.87375289     0.30900
H3599       H  0.88530678  0.57777826  0.96919519     0.30900
H3600       H  0.97659772  0.58013286  0.96112193     0.31200
C3601       C  0.87489210  0.00821044  0.01422519    -0.16300
C3602       C  0.89740018  0.50523069  0.98860166    -0.31400
H3603       H  0.85965450  0.01504269  0.00813084     0.12800
H3604       H  0.91375958  0.50035128  0.99572353     0.13300
C3605       C  0.91440759  0.93724971  0.88811739    -0.16300
C3606       C  0.92734866  0.96052793  0.90445467    -0.31400
H3607       H  0.89938557  0.93624068  0.87253262     0.12800
H3608       H  0.94322675  0.96234658  0.91943192     0.13300
C3609       C  0.93144915  0.71255404  0.88322354    -0.16300
C3610       C  0.91869957  0.69121202  0.86428424    -0.31400
H3611       H  0.94233834  0.70963150  0.90068132     0.12800
H3612       H  0.90709683  0.69351070  0.84710466     0.13300
C3613       C  0.00454070  0.86457397  0.99256576    -0.16300
C3614       C  0.52455973  0.87453548  0.00444293    -0.31400
H3615       H  0.00841800  0.84789252  0.00064041     0.12800
H3616       H  0.53046319  0.86167837  0.99139900     0.13300
C3617       C  0.97080838  0.92749902  0.09595454    -0.16300
C3618       C  0.94595974  0.91172965  0.10954848    -0.31400
H3619       H  0.97355579  0.94514377  0.08294579     0.12800
H3620       H  0.94379874  0.89458459  0.12298057     0.13300
C3621       C  0.72415779  0.93399641  0.12603999    -0.16300
C3622       C  0.70188670  0.91847451  0.14344241    -0.31400
H3623       H  0.72192690  0.94690916  0.11012611     0.12800
H3624       H  0.70377408  0.90544745  0.15943988     0.13300
C3625       C  0.79083460  0.70292116  0.88982516    -0.16300
C3626       C  0.81146021  0.71233042  0.87012942    -0.31400
H3627       H  0.79407458  0.71594019  0.90813513     0.12800
H3628       H  0.80861031  0.69913741  0.85204875     0.13300
C3629       C  0.54512736  0.95631326  0.90430822    -0.16300
C3630       C  0.56720815  0.96748299  0.88652597    -0.31400
H3631       H  0.54439678  0.96970540  0.92083989     0.12800
H3632       H  0.56729353  0.95400884  0.86971368     0.13300
C3633       C  0.79413312  0.58339730  0.86837543    -0.16300
C3634       C  0.80203572  0.56942199  0.88627594    -0.31400
H3635       H  0.80825639  0.59528939  0.85137467     0.12800
H3636       H  0.78824308  0.55826457  0.90370720     0.13300
C3637       C  0.54499265  0.58964413  0.87316426    -0.16300
C3638       C  0.55379644  0.57641413  0.89065393    -0.31400
H3639       H  0.55922729  0.60301574  0.85681389     0.12800
H3640       H  0.53927044  0.56228843  0.90646352     0.13300
C3641       C  0.96326534  0.53855376  0.10042587    -0.16300
C3642       C  0.97537146  0.55932408  0.11962463    -0.31400
H3643       H  0.97588046  0.53932726  0.08253848     0.12800
H3644       H  0.96286233  0.55802434  0.13779374     0.13300
C3645       C  0.71906883  0.81650174  0.12765730    -0.16300
C3646       C  0.70968231  0.79743059  0.10649641    -0.31400
H3647       H  0.70674646  0.81161543  0.14662677     0.12800
H3648       H  0.72204805  0.80255053  0.08753267     0.13300
C3649       C  0.59799761  0.78867804  0.13751881    -0.16300
C3650       C  0.58625736  0.79803763  0.11865855    -0.31400
H3651       H  0.60886080  0.80186239  0.15542297     0.12800
H3652       H  0.57655192  0.78509505  0.10030784     0.13300
C3653       C  0.59540800  0.55255370  0.09520217    -0.16300
C3654       C  0.60600492  0.54221125  0.11410565    -0.31400
H3655       H  0.58167052  0.53861595  0.07879479     0.12800
H3656       H  0.61865005  0.55581691  0.13119028     0.13300
C3657       C  0.63716324  0.63927064  0.00023328    -0.16300
C3658       C  0.62583636  0.61265386  0.98855963    -0.31400
H3659       H  0.65683812  0.65665802  0.99133194     0.12800
H3660       H  0.60601246  0.59511392  0.99704966     0.13300
C3661       C  0.89731127  0.58079843  0.73785911    -0.16300
C3662       C  0.92009609  0.58470433  0.75286545    -0.31400
H3663       H  0.88015029  0.58320102  0.74733123     0.12800
H3664       H  0.93777991  0.58388636  0.74250291     0.13300
C3665       C  0.50022973  0.60584398  0.48856400    -0.16300
C3666       C  0.98724082  0.61875889  0.50034839    -0.31400
H3667       H  0.49949665  0.58679241  0.49720510     0.12800
H3668       H  0.98965110  0.63875367  0.49222994     0.13300
C3669       C  0.59607869  0.67464791  0.25631087    -0.16300
C3670       C  0.59816954  0.69585559  0.24005359    -0.31400
H3671       H  0.59275281  0.65484853  0.24650770     0.12800
H3672       H  0.60341681  0.71664527  0.24885629     0.13300
C3673       C  0.67306416  0.57653827  0.73943653    -0.16300
C3674       C  0.69682317  0.58515300  0.75519248    -0.31400
H3675       H  0.65205824  0.56721245  0.74943838     0.12800
H3676       H  0.71816343  0.59636335  0.74586943     0.13300
C3677       C  0.80126614  0.57858028  0.62992150    -0.16300
C3678       C  0.78126211  0.56709597  0.60973516    -0.31400
H3679       H  0.79772700  0.58878925  0.64773679     0.12800
H3680       H  0.78551499  0.55784533  0.59157651     0.13300
C3681       C  0.53463402  0.57246694  0.59271563    -0.16300
C3682       C  0.55481004  0.58027776  0.61226351    -0.31400
H3683       H  0.53497059  0.56003157  0.57509960     0.12800
H3684       H  0.55343529  0.59150908  0.63042115     0.13300
C3685       C  0.62967297  0.49395324  0.50030051    -0.16300
C3686       C  0.63164552  0.98720307  0.49988889    -0.31400
H3687       H  0.64677364  0.49047500  0.49234533     0.12800
H3688       H  0.65152535  0.99049045  0.50927736     0.13300
C3689       C  0.57639756  0.52543374  0.38983050    -0.16300
C3690       C  0.58995205  0.54830107  0.37336147    -0.31400
H3691       H  0.56132612  0.52475400  0.40531099     0.12800
H3692       H  0.60427323  0.54855885  0.35727051     0.13300
C3693       C  0.58813532  0.79547466  0.37447304    -0.16300
C3694       C  0.57352453  0.77307227  0.39191616    -0.31400
H3695       H  0.60018252  0.79337714  0.35743040     0.12800
H3696       H  0.56201195  0.77546298  0.40927967     0.13300
C3697       C  0.59193775  0.89846552  0.26333377    -0.16300
C3698       C  0.58580274  0.91498685  0.24711128    -0.31400
H3699       H  0.60206419  0.88698479  0.25443647     0.12800
H3700       H  0.57726120  0.92776976  0.25637998     0.13300
C3701       C  0.90960195  0.79782042  0.74225291    -0.16300
C3702       C  0.91082579  0.81901922  0.75830621    -0.31400
H3703       H  0.90515958  0.77742532  0.75116734     0.12800
H3704       H  0.91346330  0.83850164  0.74866976     0.13300
C3705       C  0.78582130  0.70246392  0.61561372    -0.16300
C3706       C  0.77836019  0.68024182  0.63306960    -0.31400
H3707       H  0.77122548  0.70042019  0.59913935     0.12800
H3708       H  0.79289043  0.68191619  0.64944523     0.13300
C3709       C  0.53595777  0.95349973  0.60560289    -0.16300
C3710       C  0.52421928  0.93252603  0.62441761    -0.31400
H3711       H  0.52314515  0.95287724  0.58805273     0.12800
H3712       H  0.53690402  0.93390363  0.64237584     0.13300
C3713       C  0.90071419  0.70300426  0.62973271    -0.16300
C3714       C  0.91000303  0.69329457  0.60861674    -0.31400
H3715       H  0.89286323  0.69057737  0.64851484     0.12800
H3716       H  0.91723934  0.70560498  0.58970414     0.13300
C3717       C  0.91129787  0.94522624  0.60902718    -0.16300
C3718       C  0.90075883  0.95633479  0.62751439    -0.31400
H3719       H  0.92410358  0.95830915  0.59184410     0.12800
H3720       H  0.88843630  0.94347166  0.64499146     0.13300
C3721       C  0.80381206  0.89388686  0.25703733    -0.16300
C3722       C  0.82456859  0.89473674  0.24061508    -0.31400
H3723       H  0.78369434  0.89095547  0.24862013     0.12800
H3724       H  0.84389638  0.89637979  0.24980039     0.13300
C3725       C  0.88243022  0.87694533  0.49110855    -0.16300
C3726       C  0.86626466  0.85480751  0.50798924    -0.31400
H3727       H  0.90473243  0.89221169  0.49650147     0.12800
H3728       H  0.84411596  0.83954192  0.50206248     0.13300
C3729       C  0.93818234  0.52480529  0.36887470    -0.16300
C3730       C  0.96115842  0.53395780  0.38553863    -0.31400
H3731       H  0.93804858  0.53908294  0.35316125     0.12800
H3732       H  0.96152257  0.51936292  0.40076428     0.13300
C3733       C  0.71326889  0.78581419  0.39621303    -0.16300
C3734       C  0.69209556  0.77721849  0.37713426    -0.31400
H3735       H  0.71012930  0.77248425  0.41407723     0.12800
H3736       H  0.69517842  0.79059260  0.35932075     0.13300
C3737       C  0.95566563  0.89797810  0.37545282    -0.16300
C3738       C  0.97812313  0.91638424  0.39097755    -0.31400
H3739       H  0.95821937  0.88392291  0.36084477     0.12800
H3740       H  0.97537586  0.92974491  0.40627871     0.13300
C3741       C  0.71832036  0.90041377  0.37157247    -0.16300
C3742       C  0.71146486  0.91512286  0.38985161    -0.31400
H3743       H  0.70314733  0.88787950  0.35539544     0.12800
H3744       H  0.72638539  0.92697959  0.40642334     0.13300
loop_ 
_geom_bond_atom_site_label_1 
_geom_bond_atom_site_label_2 
_geom_bond_distance 
_geom_bond_site_symmetry_2 
_ccdc_geom_bond_type 
Zr1           O2   2.438       .  S
Zr1           O3   2.402       .  S
Zr1           O4   2.444       .  S
Zr1           O7   2.439       .  S
Zr1           O9   2.383       .  S
Zr1          O10   2.385       .  S
Zr1          O11   2.397       .  S
Zr1          O12   2.394       .  S
O2           H58   0.990       .  S
O2           H66   0.990       .  S
O3           C23   1.278       .  A
O4           C25   1.286       .  A
O5          Zr15   2.415       .  S
O5           C24   1.279       .  A
O6          Zr14   2.457       .  S
O6           C25   1.290       .  A
O7           C24   1.287       .  A
O8          Zr16   2.428       .  S
O8           C23   1.284       .  A
O9          Zr14   2.389       .  S
O9          Zr16   2.369       .  S
O10         Zr15   2.389       .  S
O10         Zr16   2.377       .  S
O10          H45   0.966       .  S
O11         Zr14   2.400       .  S
O11         Zr31   2.396       .  S
O11          H48   0.966       .  S
O12         Zr15   2.396       .  S
O12         Zr31   2.388       .  S
Zr13         O38   2.442       .  S
Zr13         O32   2.452       .  S
Zr13         O40   2.462       .  S
Zr13         O28   2.417       .  S
Zr13         O19   2.393       .  S
Zr13         O20   2.420       .  S
Zr13         O21   2.383       .  S
Zr13         O22   2.381       .  S
Zr14         O33   2.437       .  S
Zr14         O26   2.434       .  S
Zr14         O27   2.446       .  S
Zr14         O20   2.403       .  S
Zr14         O21   2.392       .  S
Zr15         O17   2.435       .  S
Zr15         O39   2.441       .  S
Zr15         O41   2.423       .  S
Zr15         O19   2.384       .  S
Zr15         O22   2.389       .  S
Zr16         O42   2.434       .  S
Zr16         O43   2.436       .  S
Zr16         O18   2.438       .  S
Zr16         O19   2.387       .  S
Zr16         O20   2.402       .  S
O17          H54   0.990       .  S
O18          H49   0.990       .  S
O18          H63   0.990       .  S
O20          H46   0.966       .  S
O21         Zr31   2.375       .  S
O22         Zr31   2.397       .  S
O22          H47   0.966       .  S
C23         C929   1.464       .  S
C24        C1857   1.473       .  S
C25         C917   1.494       .  S
O26          H62   0.990       .  S
O27          C29   1.287       .  A
O28          C29   1.281       .  A
C29         C925   1.477       .  S
O30         Zr31   2.440       .  S
O30          H59   0.991       .  S
Zr31         O34   2.438       .  S
Zr31         O35   2.439       .  S
Zr31         O36   2.397       .  S
O32          C37   1.287       .  A
O33          H50   0.990       .  S
O33          H65   0.990       .  S
O34          H51   0.990       .  S
O35          H55   0.990       .  S
O35          H64   0.989       .  S
O36          C37   1.278       .  A
C37         C933   1.474       .  S
O38          H57   0.990       .  S
O38          H61   0.990       .  S
O39          H53   0.990       .  S
O39          H60   0.990       .  S
O40          C44   1.286       .  A
O41          C44   1.283       .  A
O42          H52   0.990       .  S
O43          H56   0.990       .  S
C44         C913   1.484       .  S
Zr67         O68   2.437       .  S
Zr67         O69   2.418       .  S
Zr67         O70   2.470       .  S
Zr67         O73   2.457       .  S
Zr67         O75   2.379       .  S
Zr67         O76   2.392       .  S
Zr67         O77   2.402       .  S
Zr67         O78   2.396       .  S
O68         H124   0.990       .  S
O68         H132   0.990       .  S
O69          C89   1.280       .  A
O70          C91   1.292       .  A
O71         Zr81   2.400       .  S
O71          C90   1.278       .  A
O72         Zr80   2.435       .  S
O72          C91   1.286       .  A
O73          C90   1.291       .  A
O74         Zr82   2.447       .  S
O74          C89   1.288       .  A
O75         Zr80   2.385       .  S
O75         Zr82   2.359       .  S
O76         Zr81   2.392       .  S
O76         Zr82   2.372       .  S
O76         H111   0.966       .  S
O77         Zr80   2.398       .  S
O77         Zr97   2.394       .  S
O77         H114   0.966       .  S
O78         Zr81   2.389       .  S
O78         Zr97   2.372       .  S
Zr79        O104   2.444       .  S
Zr79         O98   2.470       .  S
Zr79        O106   2.479       .  S
Zr79         O94   2.442       .  S
Zr79         O85   2.400       .  S
Zr79         O86   2.430       .  S
Zr79         O87   2.386       .  S
Zr79         O88   2.383       .  S
Zr80         O99   2.438       .  S
Zr80         O92   2.435       .  S
Zr80         O93   2.430       .  S
Zr80         O86   2.400       .  S
Zr80         O87   2.387       .  S
Zr81         O83   2.437       .  S
Zr81        O105   2.440       .  S
Zr81        O107   2.422       .  S
Zr81         O85   2.375       .  S
Zr81         O88   2.386       .  S
Zr82        O108   2.435       .  S
Zr82        O109   2.434       .  S
Zr82         O84   2.438       .  S
Zr82         O85   2.393       .  S
Zr82         O86   2.417       .  S
O83         H120   0.990       .  S
O84         H115   0.990       .  S
O84         H129   0.990       .  S
O86         H112   0.966       .  S
O87         Zr97   2.380       .  S
O88         Zr97   2.398       .  S
O88         H113   0.966       .  S
C89         C909   1.480       .  S
C90        C2774   1.469       .  S
C91         C918   1.492       .  S
O92         H128   0.990       .  S
O93          C95   1.284       .  A
O94          C95   1.283       .  A
C95         C897   1.478       .  S
O96         Zr97   2.437       .  S
O96         H125   0.990       .  S
Zr97        O100   2.438       .  S
Zr97        O101   2.438       .  S
Zr97        O102   2.379       .  S
O98         C103   1.289       .  A
O99         H116   0.990       .  S
O99         H131   0.990       .  S
O100        H117   0.990       .  S
O101        H121   0.990       .  S
O101        H130   0.990       .  S
O102        C103   1.275       .  A
C103        C905   1.479       .  S
O104        H123   0.991       .  S
O104        H127   0.991       .  S
O105        H119   0.990       .  S
O105        H126   0.990       .  S
O106        C110   1.292       .  A
O107        C110   1.282       .  A
O108        H118   0.990       .  S
O109        H122   0.990       .  S
C110        C893   1.486       .  S
Zr133       O134   2.438       .  S
Zr133       O135   2.401       .  S
Zr133       O136   2.443       .  S
Zr133       O139   2.433       .  S
Zr133       O141   2.378       .  S
Zr133       O142   2.390       .  S
Zr133       O143   2.399       .  S
Zr133       O144   2.391       .  S
O134        H190   0.990       .  S
O134        H198   0.990       .  S
O135       C1091   1.277       .  A
O136        C157   1.285       .  A
O137       Zr147   2.428       .  S
O137        C156   1.283   1_455  A
O138       Zr146   2.456       .  S
O138        C157   1.291       .  A
O139        C156   1.287   1_455  A
O140      Zr1084   2.483   1_545  S
O140        C155   1.295       .  A
O141       Zr146   2.384       .  S
O141       Zr148   2.363       .  S
O142       Zr147   2.392       .  S
O142       Zr148   2.376       .  S
O142        H177   0.966       .  S
O143       Zr146   2.398       .  S
O143       Zr163   2.399       .  S
O143        H180   0.967       .  S
O144       Zr147   2.393       .  S
O144       Zr163   2.380       .  S
Zr145       O170   2.443       .  S
Zr145       O164   2.448       .  S
Zr145       O172   2.435       .  S
Zr145       O160   2.409       .  S
Zr145       O151   2.394       .  S
Zr145       O152   2.418       .  S
Zr145       O153   2.382       .  S
Zr145       O154   2.377       .  S
Zr146       O165   2.435       .  S
Zr146       O158   2.434       .  S
Zr146       O159   2.444       .  S
Zr146       O152   2.404       .  S
Zr146       O153   2.395       .  S
Zr147       O149   2.437       .  S
Zr147       O171   2.440       .  S
Zr147       O173   2.439       .  S
Zr147       O151   2.378       .  S
Zr147       O154   2.391       .  S
Zr148       O174   2.436       .  S
Zr148       O175   2.434       .  S
Zr148      O1086   2.436       .  S
Zr148      O1076   2.431       .  S
Zr148       O151   2.386       .  S
Zr148       O152   2.404       .  S
O149        H186   0.990   1_455  S
O150      Zr1084   2.436   1_545  S
O150        H181   0.990       .  S
O150        H195   0.990       .  S
O152        H178   0.966       .  S
O153       Zr163   2.379       .  S
O154       Zr163   2.392       .  S
O154        H179   0.966       .  S
C155       O1071   1.275   1_545  A
C155        C881   1.482       .  S
C156       C2802   1.476       .  S
C157        C878   1.494       .  S
O158        H194   0.990       .  S
O159        C161   1.286       .  A
O160        C161   1.278       .  A
C161        C934   1.475       .  S
O162       Zr163   2.439       .  S
O162        H191   0.990       .  S
Zr163       O166   2.437       .  S
Zr163       O167   2.439       .  S
Zr163       O168   2.399       .  S
O164        C169   1.285       .  A
O165        H182   0.990       .  S
O165        H197   0.990       .  S
O166        H183   0.990       .  S
O167        H187   0.990       .  S
O167        H196   0.990   1_455  S
O168        C169   1.278       .  A
C169        C885   1.477       .  S
O170        H189   0.991       .  S
O170        H193   0.991       .  S
O171        H185   0.990       .  S
O171        H192   0.990       .  S
O172        C176   1.282       .  A
O173        C176   1.287       .  A
O174       H1120   0.990       .  S
O175        H188   0.990       .  S
C176        C889   1.478       .  S
H184       O1110   0.990       .  S
Zr199       O200   2.437       .  S
Zr199       O201   2.418       .  S
Zr199       O202   2.432       .  S
Zr199       O205   2.414       .  S
Zr199       O207   2.375       .  S
Zr199       O208   2.385       .  S
Zr199       O209   2.396       .  S
Zr199       O210   2.393       .  S
O200        H256   0.990       .  S
O200        H264   0.990       .  S
O201       C1157   1.280   1_545  A
O202        C223   1.283       .  A
O203       Zr213   2.419       .  S
O203        C222   1.281       .  A
O204       Zr212   2.435       .  S
O204        C223   1.287       .  A
O205        C222   1.284       .  A
O206      Zr1150   2.455       .  S
O206        C221   1.291       .  A
O207       Zr212   2.384       .  S
O207       Zr214   2.360       .  S
O208       Zr213   2.391       .  S
O208       Zr214   2.374       .  S
O208        H243   0.966       .  S
O209       Zr212   2.390       .  S
O209       Zr229   2.397       .  S
O209        H246   0.966       .  S
O210       Zr213   2.389       .  S
O210       Zr229   2.381       .  S
Zr211       O236   2.441       .  S
Zr211       O230   2.466       .  S
Zr211       O238   2.450       .  S
Zr211       O226   2.432       .  S
Zr211       O217   2.400       .  S
Zr211       O218   2.426       .  S
Zr211       O219   2.382       .  S
Zr211       O220   2.386       .  S
Zr212       O231   2.435       .  S
Zr212       O224   2.433       .  S
Zr212       O225   2.424       .  S
Zr212       O218   2.402       .  S
Zr212       O219   2.390       .  S
Zr213       O215   2.436       .  S
Zr213       O237   2.440       .  S
Zr213       O239   2.424       .  S
Zr213       O217   2.380       .  S
Zr213       O220   2.395       .  S
Zr214       O240   2.435   1_545  S
Zr214       O241   2.435   1_545  S
Zr214      O1152   2.437   1_545  S
Zr214      O1142   2.457   1_545  S
Zr214       O217   2.394       .  S
Zr214       O218   2.417       .  S
O215        H252   0.990       .  S
O216      Zr1150   2.436       .  S
O216        H247   0.991       .  S
O216        H261   0.990       .  S
O218        H244   0.966       .  S
O219       Zr229   2.375       .  S
O220       Zr229   2.394       .  S
O220        H245   0.966       .  S
C221       O1137   1.277       .  A
C221        C901   1.479       .  S
C222        C874   1.463       .  S
C223        C877   1.481       .  S
O224        H260   0.990   1_545  S
O225        C227   1.283       .  A
O226        C227   1.282       .  A
C227        C870   1.474       .  S
O228       Zr229   2.435       .  S
O228        H257   0.990       .  S
Zr229       O232   2.436       .  S
Zr229       O233   2.436       .  S
Zr229       O234   2.401       .  S
O230        C235   1.289       .  A
O231        H248   0.990       .  S
O231        H263   0.990       .  S
O232        H249   0.990       .  S
O233        H253   0.990       .  S
O233        H262   0.990       .  S
O234        C235   1.279       .  A
C235        C898   1.488       .  S
O236        H255   0.990       .  S
O236        H259   0.990       .  S
O237        H251   0.990       .  S
O237        H258   0.990       .  S
O238        C242   1.287       .  A
O239        C242   1.282       .  A
O240       H1186   0.990   1_565  S
O241        H254   0.990   1_565  S
C242        C865   1.477       .  S
H250       O1176   0.990       .  S
Zr265       O266   2.437       .  S
Zr265       O267   2.413       .  S
Zr265       O268   2.497       .  S
Zr265       O271   2.479       .  S
Zr265       O273   2.383       .  S
Zr265       O274   2.396       .  S
Zr265       O275   2.407       .  S
Zr265       O276   2.398       .  S
O266        H322   0.990       .  S
O266        H330   0.990       .  S
O267       C2159   1.280   1_455  A
O268        C289   1.297       .  A
O269       Zr279   2.400       .  S
O269        C288   1.278       .  A
O270       Zr278   2.417       .  S
O270        C289   1.282       .  A
O271        C288   1.296       .  A
O272      Zr2152   2.449       .  S
O272        C287   1.289       .  A
O273       Zr278   2.390       .  S
O273       Zr280   2.363       .  S
O274       Zr279   2.392       .  S
O274       Zr280   2.376       .  S
O274        H309   0.966       .  S
O275       Zr278   2.399       .  S
O275       Zr295   2.399       .  S
O275        H312   0.967       .  S
O276       Zr279   2.397       .  S
O276       Zr295   2.379       .  S
Zr277       O302   2.443       .  S
Zr277       O296   2.455       .  S
Zr277       O304   2.440       .  S
Zr277       O292   2.419       .  S
Zr277       O283   2.393       .  S
Zr277       O284   2.419       .  S
Zr277       O285   2.381       .  S
Zr277       O286   2.382       .  S
Zr278       O297   2.435       .  S
Zr278       O290   2.436       .  S
Zr278       O291   2.432       .  S
Zr278       O284   2.396       .  S
Zr278       O285   2.384       .  S
Zr279       O281   2.436       .  S
Zr279       O303   2.440       .  S
Zr279       O305   2.437       .  S
Zr279       O283   2.371       .  S
Zr279       O286   2.385       .  S
Zr280       O306   2.436       .  S
Zr280       O307   2.434   1_455  S
Zr280      O2154   2.437   1_455  S
Zr280      O2144   2.443   1_455  S
Zr280       O283   2.388       .  S
Zr280       O284   2.415       .  S
O281        H318   0.990       .  S
O282      Zr2152   2.440       .  S
O282        H313   0.990       .  S
O282        H327   0.990       .  S
O284        H310   0.966       .  S
O285       Zr295   2.377       .  S
O286       Zr295   2.398       .  S
O286        H311   0.966       .  S
C287       O2139   1.281       .  A
C287        C922   1.477       .  S
C288        C882   1.480       .  S
C289        C857   1.496   1_455  S
O290        H326   0.990       .  S
O291        C293   1.283       .  A
O292        C293   1.279       .  A
C293        C886   1.472       .  S
O294       Zr295   2.439       .  S
O294        H323   0.991       .  S
Zr295       O298   2.438       .  S
Zr295       O299   2.438       .  S
Zr295       O300   2.404       .  S
O296        C301   1.288       .  A
O297        H314   0.990       .  S
O297        H329   0.990       .  S
O298        H315   0.990       .  S
O299        H319   0.990       .  S
O299        H328   0.990       .  S
O300        C301   1.279       .  A
C301        C926   1.480       .  S
O302        H321   0.991       .  S
O302        H325   0.990       .  S
O303        H317   0.990       .  S
O303        H324   0.990       .  S
O304        C308   1.285       .  A
O305        C308   1.284       .  A
O306       H2188   0.990       .  S
O307        H320   0.990   1_655  S
C308        C861   1.480       .  S
H316       O2178   0.990       .  S
Zr331       O332   2.439       .  S
Zr331       O333   2.415       .  S
Zr331       O334   2.445       .  S
Zr331       O337   2.437   1_545  S
Zr331       O339   2.383       .  S
Zr331       O340   2.389       .  S
Zr331       O341   2.403       .  S
Zr331       O342   2.400       .  S
O332        H388   0.990       .  S
O332        H396   0.990       .  S
O333       C2225   1.280       .  A
O334        C355   1.286       .  A
O335       Zr345   2.418   1_565  S
O335        C354   1.279       .  A
O336       Zr344   2.477       .  S
O336        C355   1.294       .  A
O337        C354   1.287       .  A
O338      Zr2218   2.415   1_455  S
O338        C353   1.282       .  A
O339       Zr344   2.381       .  S
O339       Zr346   2.365       .  S
O340       Zr345   2.391       .  S
O340       Zr346   2.385       .  S
O340        H375   0.966       .  S
O341       Zr344   2.397       .  S
O341       Zr361   2.403       .  S
O341        H378   0.966       .  S
O342       Zr345   2.392       .  S
O342       Zr361   2.390       .  S
Zr343       O368   2.443       .  S
Zr343       O362   2.452       .  S
Zr343       O370   2.479       .  S
Zr343       O358   2.412       .  S
Zr343       O349   2.379       .  S
Zr343       O350   2.426       .  S
Zr343       O351   2.391       .  S
Zr343       O352   2.385       .  S
Zr344       O363   2.434       .  S
Zr344       O356   2.437       .  S
Zr344       O357   2.445       .  S
Zr344       O350   2.406       .  S
Zr344       O351   2.401       .  S
Zr345       O347   2.436       .  S
Zr345       O369   2.441       .  S
Zr345       O371   2.428       .  S
Zr345       O349   2.375       .  S
Zr345       O352   2.390       .  S
Zr346       O372   2.434       .  S
Zr346       O373   2.435       .  S
Zr346      O2220   2.436       .  S
Zr346      O2210   2.409       .  S
Zr346       O349   2.368       .  S
Zr346       O350   2.401       .  S
O347        H384   0.990   1_545  S
O348      Zr2218   2.437   1_455  S
O348        H379   0.990       .  S
O348        H393   0.990       .  S
O350        H376   0.966       .  S
O351       Zr361   2.374       .  S
O352       Zr361   2.396       .  S
O352        H377   0.966       .  S
C353       O2205   1.279   1_455  A
C353        C873   1.464       .  S
C354       C1846   1.473       .  S
C355        C858   1.504       .  S
O356        H392   0.990       .  S
O357        C359   1.288       .  A
O358        C359   1.280       .  A
C359        C906   1.473       .  S
O360       Zr361   2.435       .  S
O360        H389   0.990       .  S
Zr361       O364   2.435       .  S
Zr361       O365   2.438       .  S
Zr361       O366   2.404       .  S
O362        C367   1.285       .  A
O363        H380   0.990       .  S
O363        H395   0.990       .  S
O364        H381   0.991       .  S
O365        H385   0.990       .  S
O365        H394   0.990   1_545  S
O366        C367   1.279       .  A
C367        C869   1.480       .  S
O368        H387   0.990       .  S
O368        H391   0.990       .  S
O369        H383   0.990   1_545  S
O369        H390   0.990       .  S
O370        C374   1.291       .  A
O371        C374   1.283       .  A
O372       H2254   0.990       .  S
O373        H386   0.990       .  S
C374        C853   1.479       .  S
H382       O2244   0.990       .  S
Zr397       O398   2.435       .  S
Zr397       O399   2.387       .  S
Zr397       O400   2.474       .  S
Zr397       O403   2.463       .  S
Zr397       O405   2.380       .  S
Zr397       O406   2.391       .  S
Zr397       O407   2.397       .  S
Zr397       O408   2.393       .  S
O398        H454   0.990       .  S
O398        H462   0.990       .  S
O399        C419   1.275       .  A
O400        C421   1.293       .  A
O401       Zr411   2.407       .  S
O401        C420   1.280       .  A
O402       Zr410   2.420       .  S
O402        C421   1.283       .  A
O403        C420   1.293       .  A
O404       Zr412   2.462       .  S
O404        C419   1.291       .  A
O405       Zr410   2.384       .  S
O405       Zr412   2.359       .  S
O406       Zr411   2.388       .  S
O406       Zr412   2.368       .  S
O406        H441   0.966       .  S
O407       Zr410   2.397       .  S
O407       Zr427   2.391       .  S
O407        H444   0.966       .  S
O408       Zr411   2.397       .  S
O408       Zr427   2.377       .  S
Zr409       O434   2.446       .  S
Zr409       O428   2.470       .  S
Zr409       O436   2.455       .  S
Zr409       O424   2.427       .  S
Zr409       O415   2.404       .  S
Zr409       O416   2.422       .  S
Zr409       O417   2.380       .  S
Zr409       O418   2.380       .  S
Zr410       O429   2.435       .  S
Zr410       O422   2.435       .  S
Zr410       O423   2.425       .  S
Zr410       O416   2.393       .  S
Zr410       O417   2.387       .  S
Zr411       O413   2.436       .  S
Zr411       O435   2.441       .  S
Zr411       O437   2.427       .  S
Zr411       O415   2.381       .  S
Zr411       O418   2.392       .  S
Zr412       O438   2.434       .  S
Zr412       O439   2.436       .  S
Zr412       O414   2.437       .  S
Zr412       O415   2.400       .  S
Zr412       O416   2.414       .  S
O413        H450   0.990       .  S
O414        H445   0.990       .  S
O414        H459   0.990       .  S
O416        H442   0.966       .  S
O417       Zr427   2.383       .  S
O418       Zr427   2.398       .  S
O418        H443   0.966       .  S
C419        C845   1.471       .  S
C420       C2706   1.477   1_455  S
C421        C849   1.489       .  S
O422        H458   0.990       .  S
O423        C425   1.282       .  A
O424        C425   1.282       .  A
C425        C838   1.472       .  S
O426       Zr427   2.438       .  S
O426        H455   0.990       .  S
Zr427       O430   2.436       .  S
Zr427       O431   2.439       .  S
Zr427       O432   2.386       .  S
O428        C433   1.290       .  A
O429        H446   0.990       .  S
O429        H461   0.990       .  S
O430        H447   0.990       .  S
O431        H451   0.990       .  S
O431        H460   0.990       .  S
O432        C433   1.276       .  A
C433        C841   1.479       .  S
O434        H453   0.991       .  S
O434        H457   0.991       .  S
O435        H449   0.990       .  S
O435        H456   0.990       .  S
O436        C440   1.284       .  A
O437        C440   1.283       .  A
O438        H448   0.990       .  S
O439        H452   0.990       .  S
C440        C862   1.481       .  S
Zr463       O464   2.438       .  S
Zr463       O465   2.403       .  S
Zr463       O466   2.443       .  S
Zr463       O469   2.432       .  S
Zr463       O471   2.381       .  S
Zr463       O472   2.388       .  S
Zr463       O473   2.396       .  S
Zr463       O474   2.394       .  S
O464        H520   0.990       .  S
O464        H528   0.990       .  S
O465        C485   1.277       .  A
O466        C487   1.285       .  A
O467       Zr477   2.411   1_565  S
O467        C486   1.279       .  A
O468       Zr476   2.456       .  S
O468        C487   1.291       .  A
O469        C486   1.287   1_545  A
O470       Zr478   2.421       .  S
O470        C485   1.283       .  A
O471       Zr476   2.385       .  S
O471       Zr478   2.366       .  S
O472       Zr477   2.392       .  S
O472       Zr478   2.381       .  S
O472        H507   0.966       .  S
O473       Zr476   2.399       .  S
O473       Zr493   2.395       .  S
O473        H510   0.966       .  S
O474       Zr477   2.396       .  S
O474       Zr493   2.387       .  S
Zr475       O500   2.442       .  S
Zr475       O494   2.439       .  S
Zr475       O502   2.441       .  S
Zr475       O490   2.407       .  S
Zr475       O481   2.386       .  S
Zr475       O482   2.416       .  S
Zr475       O483   2.382       .  S
Zr475       O484   2.379       .  S
Zr476       O495   2.434       .  S
Zr476       O488   2.435       .  S
Zr476       O489   2.448       .  S
Zr476       O482   2.405       .  S
Zr476       O483   2.395       .  S
Zr477       O479   2.437       .  S
Zr477       O501   2.439       .  S
Zr477       O503   2.435       .  S
Zr477       O481   2.375       .  S
Zr477       O484   2.385       .  S
Zr478       O504   2.435       .  S
Zr478       O505   2.436       .  S
Zr478       O480   2.436       .  S
Zr478       O481   2.381       .  S
Zr478       O482   2.402       .  S
O479        H516   0.990   1_545  S
O480        H511   0.990       .  S
O480        H525   0.990       .  S
O482        H508   0.966       .  S
O483       Zr493   2.373       .  S
O484       Zr493   2.396       .  S
O484        H509   0.966       .  S
C485        C830   1.463       .  S
C486       C1758   1.468       .  S
C487        C850   1.495       .  S
O488        H524   0.990       .  S
O489        C491   1.287       .  A
O490        C491   1.278       .  A
C491        C817   1.477       .  S
O492       Zr493   2.439       .  S
O492        H521   0.990       .  S
Zr493       O496   2.436       .  S
Zr493       O497   2.439       .  S
Zr493       O498   2.399       .  S
O494        C499   1.284       .  A
O495        H512   0.990       .  S
O495        H527   0.990       .  S
O496        H513   0.990       .  S
O497        H517   0.990       .  S
O497        H526   0.990       .  S
O498        C499   1.278       .  A
C499        C825   1.471       .  S
O500        H519   0.990       .  S
O500        H523   0.990       .  S
O501        H515   0.990       .  S
O501        H522   0.990       .  S
O502        C506   1.284       .  A
O503        C506   1.286       .  A
O504        H514   0.990       .  S
O505        H518   0.990       .  S
C506        C866   1.479       .  S
Zr529       O530   2.437       .  S
Zr529       O531   2.406       .  S
Zr529       O532   2.436       .  S
Zr529       O535   2.437       .  S
Zr529       O537   2.383       .  S
Zr529       O538   2.384       .  S
Zr529       O539   2.402       .  S
Zr529       O540   2.390       .  S
O530        H586   0.990       .  S
O530        H594   0.990       .  S
O531       C2423   1.278   1_455  A
O532        C553   1.285       .  A
O533       Zr543   2.407       .  S
O533        C552   1.279       .  A
O534       Zr542   2.466       .  S
O534        C553   1.293       .  A
O535        C552   1.288       .  A
O536      Zr2416   2.430       .  S
O536        C551   1.286       .  A
O537       Zr542   2.382       .  S
O537       Zr544   2.358       .  S
O538       Zr543   2.388       .  S
O538       Zr544   2.376       .  S
O538        H573   0.966       .  S
O539       Zr542   2.401       .  S
O539       Zr559   2.399       .  S
O539        H576   0.967       .  S
O540       Zr543   2.390       .  S
O540       Zr559   2.379       .  S
Zr541       O566   2.443       .  S
Zr541       O560   2.460       .  S
Zr541       O568   2.458       .  S
Zr541       O556   2.416       .  S
Zr541       O547   2.389       .  S
Zr541       O548   2.426       .  S
Zr541       O549   2.385       .  S
Zr541       O550   2.379       .  S
Zr542       O561   2.434       .  S
Zr542       O554   2.436       .  S
Zr542       O555   2.445       .  S
Zr542       O548   2.405       .  S
Zr542       O549   2.397       .  S
Zr543       O545   2.435       .  S
Zr543       O567   2.441       .  S
Zr543       O569   2.418       .  S
Zr543       O547   2.374       .  S
Zr543       O550   2.390       .  S
Zr544       O570   2.436       .  S
Zr544       O571   2.435       .  S
Zr544      O2418   2.436   1_455  S
Zr544      O2408   2.436   1_455  S
Zr544       O547   2.382       .  S
Zr544       O548   2.409       .  S
O545        H582   0.990       .  S
O546      Zr2416   2.436       .  S
O546        H577   0.990       .  S
O546        H591   0.990       .  S
O548        H574   0.966       .  S
O549       Zr559   2.377       .  S
O550       Zr559   2.394       .  S
O550        H575   0.965       .  S
C551       O2403   1.279       .  A
C551        C809   1.475       .  S
C552       C1782   1.468       .  S
C553        C806   1.495       .  S
O554        H590   0.990       .  S
O555        C557   1.286       .  A
O556        C557   1.279       .  A
C557        C842   1.477       .  S
O558       Zr559   2.438       .  S
O558        H587   0.990       .  S
Zr559       O562   2.436       .  S
Zr559       O563   2.439       .  S
Zr559       O564   2.392       .  S
O560        C565   1.287       .  A
O561        H578   0.990       .  S
O561        H593   0.990       .  S
O562        H579   0.990       .  S
O563        H583   0.990       .  S
O563        H592   0.990       .  S
O564        C565   1.277       .  A
C565        C814   1.483       .  S
O566        H585   0.990       .  S
O566        H589   0.990       .  S
O567        H581   0.990       .  S
O567        H588   0.990       .  S
O568        C572   1.288       .  A
O569        C572   1.281       .  A
O570       H2452   0.990       .  S
O571        H584   0.991       .  S
C572        C890   1.476       .  S
H580       O2442   0.990       .  S
Zr595       O596   2.437       .  S
Zr595       O597   2.406       .  S
Zr595       O598   2.478       .  S
Zr595       O601   2.452       .  S
Zr595       O603   2.375       .  S
Zr595       O604   2.395       .  S
Zr595       O605   2.398       .  S
Zr595       O606   2.400       .  S
O596        H652   0.990       .  S
O596        H660   0.990       .  S
O597       C2489   1.279       .  A
O598        C619   1.294       .  A
O599       Zr609   2.425       .  S
O599        C618   1.284       .  A
O600       Zr608   2.400       .  S
O600        C619   1.278       .  A
O601        C618   1.291       .  A
O602      Zr2482   2.455   1_455  S
O602        C617   1.289       .  A
O603       Zr608   2.384       .  S
O603       Zr610   2.361       .  S
O604       Zr609   2.392       .  S
O604       Zr610   2.370       .  S
O604        H639   0.965       .  S
O605       Zr608   2.392       .  S
O605       Zr625   2.395       .  S
O605        H642   0.966       .  S
O606       Zr609   2.398       .  S
O606       Zr625   2.380       .  S
Zr607       O632   2.442       .  S
Zr607       O626   2.459       .  S
Zr607       O634   2.435       .  S
Zr607       O622   2.432       .  S
Zr607       O613   2.408       .  S
Zr607       O614   2.418       .  S
Zr607       O615   2.372       .  S
Zr607       O616   2.381       .  S
Zr608       O627   2.435       .  S
Zr608       O620   2.433       .  S
Zr608       O621   2.414       .  S
Zr608       O614   2.396       .  S
Zr608       O615   2.378       .  S
Zr609       O611   2.434       .  S
Zr609       O633   2.440       .  S
Zr609       O635   2.450       .  S
Zr609       O613   2.378       .  S
Zr609       O616   2.390       .  S
Zr610       O636   2.434       .  S
Zr610       O637   2.435       .  S
Zr610      O2484   2.438       .  S
Zr610      O2474   2.453       .  S
Zr610       O613   2.401       .  S
Zr610       O614   2.414       .  S
O611        H648   0.990       .  S
O612      Zr2482   2.435   1_455  S
O612        H643   0.991       .  S
O612        H657   0.990       .  S
O614        H640   0.966       .  S
O615       Zr625   2.380       .  S
O616       Zr625   2.396       .  S
O616        H641   0.966       .  S
C617       O2469   1.275       .  A
C617        C821   1.469       .  S
C618        C797   1.479       .  S
C619        C805   1.482       .  S
O620        H656   0.990       .  S
O621        C623   1.279       .  A
O622        C623   1.283       .  A
C623        C801   1.471       .  S
O624       Zr625   2.440       .  S
O624        H653   0.990       .  S
Zr625       O628   2.437       .  S
Zr625       O629   2.440       .  S
Zr625       O630   2.397       .  S
O626        C631   1.289       .  A
O627        H644   0.990       .  S
O627        H659   0.990       .  S
O628        H645   0.990       .  S
O629        H649   0.990       .  S
O629        H658   0.990       .  S
O630        C631   1.278       .  A
C631        C818   1.476       .  S
O632        H651   0.991       .  S
O632        H655   0.990       .  S
O633        H647   0.990       .  S
O633        H654   0.990       .  S
O634        C638   1.283       .  A
O635        C638   1.288       .  A
O636       H2518   0.990       .  S
O637        H650   0.990       .  S
C638        C894   1.489       .  S
H646       O2508   0.990   1_655  S
Zr661       O662   2.437       .  S
Zr661       O663   2.408       .  S
Zr661       O664   2.468       .  S
Zr661       O667   2.449       .  S
Zr661       O669   2.374       .  S
Zr661       O670   2.393       .  S
Zr661       O671   2.397       .  S
Zr661       O672   2.398       .  S
O662        H718   0.990       .  S
O662        H726   0.990       .  S
O663       C1619   1.279       .  A
O664        C685   1.293       .  A
O665       Zr675   2.406       .  S
O665        C684   1.280       .  A
O666       Zr674   2.409       .  S
O666        C685   1.281       .  A
O667        C684   1.290       .  A
O668      Zr1612   2.419   1_545  S
O668        C683   1.283       .  A
O669       Zr674   2.385       .  S
O669       Zr676   2.359       .  S
O670       Zr675   2.389       .  S
O670       Zr676   2.370       .  S
O670        H705   0.966       .  S
O671       Zr674   2.396       .  S
O671       Zr691   2.395       .  S
O671        H708   0.966       .  S
O672       Zr675   2.392       .  S
O672       Zr691   2.375       .  S
Zr673       O698   2.440       .  S
Zr673       O692   2.451       .  S
Zr673       O700   2.444       .  S
Zr673       O688   2.437       .  S
Zr673       O679   2.404       .  S
Zr673       O680   2.416       .  S
Zr673       O681   2.376       .  S
Zr673       O682   2.380       .  S
Zr674       O693   2.435       .  S
Zr674       O686   2.437       .  S
Zr674       O687   2.420       .  S
Zr674       O680   2.393       .  S
Zr674       O681   2.380       .  S
Zr675       O677   2.436       .  S
Zr675       O699   2.439       .  S
Zr675       O701   2.432       .  S
Zr675       O679   2.374       .  S
Zr675       O682   2.380       .  S
Zr676       O702   2.435       .  S
Zr676       O703   2.435       .  S
Zr676      O1614   2.437       .  S
Zr676      O1604   2.464       .  S
Zr676       O679   2.399       .  S
Zr676       O680   2.420       .  S
O677        H714   0.990       .  S
O678      Zr1612   2.438   1_545  S
O678        H709   0.990       .  S
O678        H723   0.990       .  S
O680        H706   0.966       .  S
O681       Zr691   2.379       .  S
O682       Zr691   2.394       .  S
O682        H707   0.966       .  S
C683       O1599   1.280   1_545  A
C683        C833   1.465       .  S
C684        C810   1.468       .  S
C685        C793   1.481       .  S
O686        H722   0.990       .  S
O687        C689   1.282       .  A
O688        C689   1.282       .  A
C689        C813   1.473       .  S
O690       Zr691   2.441       .  S
O690        H719   0.990       .  S
Zr691       O694   2.438       .  S
Zr691       O695   2.440       .  S
Zr691       O696   2.395       .  S
O692        C697   1.286       .  A
O693        H710   0.990       .  S
O693        H725   0.990       .  S
O694        H711   0.990       .  S
O695        H715   0.990       .  S
O695        H724   0.989       .  S
O696        C697   1.279       .  A
C697        C837   1.477       .  S
O698        H717   0.990       .  S
O698        H721   0.991       .  S
O699        H713   0.990       .  S
O699        H720   0.990       .  S
O700        C704   1.285       .  A
O701        C704   1.284       .  A
O702       H1648   0.990       .  S
O703        H716   0.990       .  S
C704        C914   1.481       .  S
H712       O1638   0.990       .  S
Zr727       O728   2.441       .  S
Zr727       O729   2.435       .  S
Zr727       O730   2.452       .  S
Zr727       O733   2.434       .  S
Zr727       O735   2.377       .  S
Zr727       O736   2.388       .  S
Zr727       O737   2.408       .  S
Zr727       O738   2.398       .  S
O728        H784   0.990       .  S
O728        H792   0.990       .  S
O729       C1685   1.286   1_545  A
O730        C751   1.286       .  A
O731       Zr741   2.436       .  S
O731        C750   1.284       .  A
O732       Zr740   2.447       .  S
O732        C751   1.288       .  A
O733        C750   1.287       .  A
O734      Zr1678   2.447       .  S
O734        C749   1.288       .  A
O735       Zr740   2.387       .  S
O735       Zr742   2.377       .  S
O736       Zr741   2.393       .  S
O736       Zr742   2.387       .  S
O736        H771   0.966       .  S
O737       Zr740   2.400       .  S
O737       Zr757   2.408       .  S
O737        H774   0.967       .  S
O738       Zr741   2.392       .  S
O738       Zr757   2.387       .  S
Zr739       O764   2.449       .  S
Zr739       O758   2.410       .  S
Zr739       O766   2.435       .  S
Zr739       O754   2.407       .  S
Zr739       O745   2.382       .  S
Zr739       O746   2.401       .  S
Zr739       O747   2.383       .  S
Zr739       O748   2.384       .  S
Zr740       O759   2.438       .  S
Zr740       O752   2.436       .  S
Zr740       O753   2.441       .  S
Zr740       O746   2.399       .  S
Zr740       O747   2.389       .  S
Zr741       O743   2.436       .  S
Zr741       O765   2.438       .  S
Zr741       O767   2.450       .  S
Zr741       O745   2.381       .  S
Zr741       O748   2.387       .  S
Zr742       O768   2.435       .  S
Zr742       O769   2.434       .  S
Zr742      O1680   2.437   1_545  S
Zr742      O1670   2.388   1_545  S
Zr742       O745   2.372       .  S
Zr742       O746   2.390       .  S
O743        H780   0.990       .  S
O744      Zr1678   2.436       .  S
O744        H775   0.990       .  S
O744        H789   0.990       .  S
O746        H772   0.966       .  S
O747       Zr757   2.368       .  S
O748       Zr757   2.388       .  S
O748        H773   0.966       .  S
C749       O1665   1.280       .  A
C749        C798   1.479       .  S
C750       C2701   1.481       .  S
C751        C794   1.495       .  S
O752        H788   0.990       .  S
O753        C755   1.286       .  A
O754        C755   1.281       .  A
C755        C826   1.470       .  S
O756       Zr757   2.440       .  S
O756        H785   0.990       .  S
Zr757       O760   2.437       .  S
Zr757       O761   2.440       .  S
Zr757       O762   2.431       .  S
O758        C763   1.280       .  A
O759        H776   0.990       .  S
O759        H791   0.990       .  S
O760        H777   0.990       .  S
O761        H781   0.990       .  S
O761        H790   0.990       .  S
O762        C763   1.285       .  A
C763        C802   1.469       .  S
O764        H783   0.990       .  S
O764        H787   0.990       .  S
O765        H779   0.990       .  S
O765        H786   0.990       .  S
O766        C770   1.282       .  A
O767        C770   1.289       .  A
O768       H1714   0.990   1_545  S
O769        H782   0.989       .  S
C770        C854   1.480       .  S
H778       O1704   0.990       .  S
C793        H795   1.087   1_554  S
C793       C1730   1.342   1_554  D
C794        H796   1.086   1_545  S
C794       C1729   1.349   1_546  D
C797        H799   1.087       .  S
C797        C798   1.342       .  D
C798        H800   1.087       .  S
C801        H803   1.087       .  S
C801        C802   1.341       .  D
C802        H804   1.087       .  S
C805        H807   1.088   1_556  S
C805       C2678   1.341   1_556  D
C806        H808   1.087   1_554  S
C806       C2677   1.346   1_554  D
C809        H811   1.087       .  S
C809        C810   1.339       .  D
C810        H812   1.087       .  S
C813        H815   1.087       .  S
C813        C814   1.351       .  D
C814        H816   1.086       .  S
C817        H819   1.087       .  S
C817        C818   1.354       .  D
C818        H820   1.086       .  S
C821        H823   1.087       .  S
C821        C822   1.336       .  D
C822       C1422   1.471       .  S
C822        H824   1.087       .  S
C825        H827   1.087       .  S
C825        C826   1.349       .  D
C826        H828   1.087       .  S
C829       C2622   1.463       .  S
C829        H831   1.087       .  S
C829        C830   1.338       .  D
C830        H832   1.087       .  S
C833        H835   1.087       .  S
C833        C834   1.342       .  D
C834       C2292   1.466       .  S
C834        H836   1.087       .  S
C837        H839   1.086       .  S
C837        C838   1.349       .  D
C838        H840   1.087       .  S
C841        H843   1.086       .  S
C841        C842   1.355       .  D
C842        H844   1.087       .  S
C845        H847   1.087       .  S
C845        C846   1.335       .  D
C846       C1488   1.474       .  S
C846        H848   1.087       .  S
C849        H851   1.087   1_554  S
C849        C850   1.347   1_554  D
C850        H852   1.087   1_556  S
C853        H855   1.088       .  S
C853        C854   1.345       .  D
C854        H856   1.086       .  S
C857        H859   1.087       .  S
C857       C2730   1.347       .  D
C858        H860   1.086       .  S
C858       C2729   1.349       .  D
C861        H863   1.088       .  S
C861        C862   1.347       .  D
C862        H864   1.086       .  S
C865        H867   1.088       .  S
C865        C866   1.345       .  D
C866        H868   1.086       .  S
C869        H871   1.087       .  S
C869        C870   1.349       .  D
C870        H872   1.087       .  S
C873        H875   1.087       .  S
C873        C874   1.341       .  D
C874        H876   1.087       .  S
C877        H879   1.087       .  S
C877       C1814   1.345   1_545  D
C878        H880   1.086       .  S
C878       C1813   1.347       .  D
C881        H883   1.087       .  S
C881        C882   1.336       .  D
C882        H884   1.087       .  S
C885        H887   1.087       .  S
C885        C886   1.350       .  D
C886        H888   1.087       .  S
C889        H891   1.086       .  S
C889        C890   1.343       .  D
C890        H892   1.088       .  S
C893        H895   1.088       .  S
C893        C894   1.345       .  D
C894        H896   1.086       .  S
C897        H899   1.087       .  S
C897        C898   1.354       .  D
C898        H900   1.086       .  S
C901        H903   1.087       .  S
C901        C902   1.336       .  D
C902       C1962   1.471   1_455  S
C902        H904   1.088       .  S
C905        H907   1.086       .  S
C905        C906   1.355       .  D
C906        H908   1.087       .  S
C909        H911   1.087       .  S
C909        C910   1.341       .  D
C910       C1290   1.476       .  S
C910        H912   1.088       .  S
C913        H915   1.086       .  S
C913        C914   1.349       .  D
C914        H916   1.088       .  S
C917        H919   1.087       .  S
C917        C918   1.349       .  D
C918        H920   1.087       .  S
C921        C960   1.478   1_545  S
C921        H923   1.087       .  S
C921        C922   1.342       .  D
C922        H924   1.087       .  S
C925        H927   1.087       .  S
C925        C926   1.352       .  D
C926        H928   1.087       .  S
C929        H931   1.087       .  S
C929        C930   1.340       .  D
C930       C2028   1.468       .  S
C930        H932   1.087       .  S
C933        H935   1.086       .  S
C933        C934   1.352       .  D
C934        H936   1.087       .  S
Zr937       O938   2.441       .  S
Zr937       O939   2.439       .  S
Zr937       O940   2.447       .  S
Zr937       O943   2.448       .  S
Zr937       O945   2.382       .  S
Zr937       O946   2.384       .  S
Zr937       O947   2.412       .  S
Zr937       O948   2.394       .  S
O938        H994   0.990       .  S
O938       H1002   0.990       .  S
O939        C959   1.287       .  A
O940        C961   1.285       .  A
O941       Zr951   2.417       .  S
O941        C960   1.281       .  A
O942       Zr950   2.463       .  S
O942        C961   1.291       .  A
O943        C960   1.289       .  A
O944       Zr952   2.409       .  S
O944        C959   1.279       .  A
O945       Zr950   2.391       .  S
O945       Zr952   2.375       .  S
O946       Zr951   2.387       .  S
O946       Zr952   2.383       .  S
O946        H981   0.966       .  S
O947       Zr950   2.401       .  S
O947       Zr967   2.405       .  S
O947        H984   0.966       .  S
O948       Zr951   2.392       .  S
O948       Zr967   2.385       .  S
Zr949       O974   2.442       .  S
Zr949       O968   2.435       .  S
Zr949       O976   2.447       .  S
Zr949       O964   2.390       .  S
Zr949       O955   2.386       .  S
Zr949       O956   2.411       .  S
Zr949       O957   2.387       .  S
Zr949       O958   2.378       .  S
Zr950       O969   2.436       .  S
Zr950       O962   2.435       .  S
Zr950       O963   2.455       .  S
Zr950       O956   2.398       .  S
Zr950       O957   2.393       .  S
Zr951       O953   2.435       .  S
Zr951       O975   2.437       .  S
Zr951       O977   2.429       .  S
Zr951       O955   2.382       .  S
Zr951       O958   2.390       .  S
Zr952       O978   2.436       .  S
Zr952       O979   2.436       .  S
Zr952       O954   2.436       .  S
Zr952       O955   2.383       .  S
Zr952       O956   2.392       .  S
O953        H990   0.990       .  S
O954        H985   0.990       .  S
O954        H999   0.990       .  S
O956        H982   0.966       .  S
O957       Zr967   2.368       .  S
O958       Zr967   2.389       .  S
O958        H983   0.966       .  S
C959       C1865   1.471       .  S
C961       C1853   1.499       .  S
O962        H998   0.990       .  S
O963        C965   1.289       .  A
O964        C965   1.278       .  A
C965       C1861   1.471       .  S
O966       Zr967   2.438       .  S
O966        H995   0.990       .  S
Zr967       O970   2.437       .  S
Zr967       O971   2.438       .  S
Zr967       O972   2.423       .  S
O968        C973   1.284       .  A
O969        H986   0.990       .  S
O969       H1001   0.990       .  S
O970        H987   0.990       .  S
O971        H991   0.990       .  S
O971       H1000   0.990       .  S
O972        C973   1.283       .  A
C973       C1869   1.478       .  S
O974        H993   0.990       .  S
O974        H997   0.990       .  S
O975        H989   0.990       .  S
O975        H996   0.990       .  S
O976        C980   1.284       .  A
O977        C980   1.284       .  A
O978        H988   0.990       .  S
O979        H992   0.990       .  S
C980       C1849   1.480       .  S
Zr1003     O1004   2.438       .  S
Zr1003     O1005   2.407       .  S
Zr1003     O1006   2.490       .  S
Zr1003     O1009   2.469       .  S
Zr1003     O1011   2.383       .  S
Zr1003     O1012   2.398       .  S
Zr1003     O1013   2.403       .  S
Zr1003     O1014   2.403       .  S
O1004      H1060   0.990       .  S
O1004      H1068   0.990       .  S
O1005      C1025   1.279       .  A
O1006      C1027   1.296       .  A
O1007     Zr1017   2.412       .  S
O1007      C1026   1.281       .  A
O1008     Zr1016   2.419       .  S
O1008      C1027   1.282       .  A
O1009      C1026   1.294       .  A
O1010     Zr1018   2.447       .  S
O1010      C1025   1.288       .  A
O1011     Zr1016   2.386       .  S
O1011     Zr1018   2.367       .  S
O1012     Zr1017   2.395       .  S
O1012     Zr1018   2.370       .  S
O1012      H1047   0.966       .  S
O1013     Zr1016   2.395       .  S
O1013     Zr1033   2.397       .  S
O1013      H1050   0.966       .  S
O1014     Zr1017   2.400       .  S
O1014     Zr1033   2.382       .  S
Zr1015     O1040   2.447       .  S
Zr1015     O1034   2.452       .  S
Zr1015     O1042   2.441       .  S
Zr1015     O1030   2.409       .  S
Zr1015     O1021   2.397       .  S
Zr1015     O1022   2.415       .  S
Zr1015     O1023   2.377       .  S
Zr1015     O1024   2.381       .  S
Zr1016     O1035   2.436       .  S
Zr1016     O1028   2.435       .  S
Zr1016     O1029   2.434       .  S
Zr1016     O1022   2.388       .  S
Zr1016     O1023   2.373       .  S
Zr1017     O1019   2.434       .  S
Zr1017     O1041   2.438       .  S
Zr1017     O1043   2.452       .  S
Zr1017     O1021   2.372       .  S
Zr1017     O1024   2.386       .  S
Zr1018     O1044   2.435       .  S
Zr1018     O1045   2.435       .  S
Zr1018     O1020   2.436       .  S
Zr1018     O1021   2.392       .  S
Zr1018     O1022   2.408       .  S
O1019      H1056   0.990       .  S
O1020      H1051   0.990       .  S
O1020      H1065   0.990       .  S
O1022      H1048   0.966       .  S
O1023     Zr1033   2.368       .  S
O1024     Zr1033   2.393       .  S
O1024      H1049   0.966       .  S
C1025      C1845   1.474       .  S
C1026      C3710   1.481       .  S
C1027      C1854   1.495       .  S
O1028      H1064   0.990       .  S
O1029      C1031   1.285       .  A
O1030      C1031   1.280       .  A
C1031      C1833   1.465       .  S
O1032     Zr1033   2.438       .  S
O1032      H1061   0.990       .  S
Zr1033     O1036   2.437       .  S
Zr1033     O1037   2.438       .  S
Zr1033     O1038   2.406       .  S
O1034      C1039   1.288       .  A
O1035      H1052   0.990       .  S
O1035      H1067   0.990       .  S
O1036      H1053   0.990       .  S
O1037      H1057   0.990       .  S
O1037      H1066   0.990       .  S
O1038      C1039   1.280       .  A
C1039      C1841   1.480       .  S
O1040      H1059   0.990       .  S
O1040      H1063   0.991       .  S
O1041      H1055   0.990       .  S
O1041      H1062   0.990       .  S
O1042      C1046   1.284       .  A
O1043      C1046   1.288       .  A
O1044      H1054   0.990       .  S
O1045      H1058   0.990       .  S
C1046      C1829   1.488       .  S
Zr1069     O1070   2.435       .  S
Zr1069     O1071   2.393       .  S
Zr1069     O1072   2.440       .  S
Zr1069     O1075   2.402       .  S
Zr1069     O1077   2.371       .  S
Zr1069     O1078   2.393       .  S
Zr1069     O1079   2.389       .  S
Zr1069     O1080   2.397       .  S
O1070      H1126   0.990       .  S
O1070      H1134   0.990       .  S
O1072      C1093   1.287       .  A
O1073     Zr1083   2.451       .  S
O1073      C1092   1.289       .  A
O1074     Zr1082   2.429       .  S
O1074      C1093   1.284       .  A
O1075      C1092   1.279       .  A
O1076      C1091   1.285       .  A
O1077     Zr1082   2.383       .  S
O1077     Zr1084   2.361       .  S
O1078     Zr1083   2.388       .  S
O1078     Zr1084   2.367       .  S
O1078      H1113   0.965       .  S
O1079     Zr1082   2.392       .  S
O1079     Zr1099   2.399       .  S
O1079      H1116   0.966       .  S
O1080     Zr1083   2.395       .  S
O1080     Zr1099   2.383       .  S
Zr1081     O1106   2.441       .  S
Zr1081     O1100   2.464       .  S
Zr1081     O1108   2.440       .  S
Zr1081     O1096   2.443       .  S
Zr1081     O1087   2.410       .  S
Zr1081     O1088   2.422       .  S
Zr1081     O1089   2.374       .  S
Zr1081     O1090   2.384       .  S
Zr1082     O1101   2.435       .  S
Zr1082     O1094   2.435       .  S
Zr1082     O1095   2.415       .  S
Zr1082     O1088   2.398       .  S
Zr1082     O1089   2.393       .  S
Zr1083     O1085   2.435       .  S
Zr1083     O1107   2.438       .  S
Zr1083     O1109   2.460       .  S
Zr1083     O1087   2.384       .  S
Zr1083     O1090   2.396       .  S
Zr1084     O1110   2.436       .  S
Zr1084     O1111   2.437       .  S
Zr1084     O1087   2.400       .  S
Zr1084     O1088   2.426       .  S
O1085      H1122   0.990   1_455  S
O1086      H1117   0.990       .  S
O1086      H1131   0.990       .  S
O1088      H1114   0.971       .  S
O1089     Zr1099   2.379       .  S
O1090     Zr1099   2.394       .  S
O1090      H1115   0.966       .  S
C1091      C1817   1.464       .  S
C1092      C3738   1.470   1_455  S
C1093      C1814   1.478       .  S
O1094      H1130   0.990       .  S
O1095      C1097   1.280       .  A
O1096      C1097   1.285       .  A
C1097      C1870   1.476       .  S
O1098     Zr1099   2.436       .  S
O1098      H1127   0.990       .  S
Zr1099     O1102   2.435       .  S
Zr1099     O1103   2.439       .  S
Zr1099     O1104   2.403       .  S
O1100      C1105   1.289       .  A
O1101      H1118   0.990       .  S
O1101      H1133   0.990       .  S
O1102      H1119   0.990       .  S
O1103      H1123   0.990       .  S
O1103      H1132   0.990       .  S
O1104      C1105   1.278       .  A
C1105      C1821   1.484       .  S
O1106      H1125   0.989       .  S
O1106      H1129   0.991       .  S
O1107      H1121   0.990       .  S
O1107      H1128   0.990       .  S
O1108      C1112   1.284       .  A
O1109      C1112   1.290       .  A
O1111      H1124   0.995       .  S
C1112      C1825   1.491       .  S
Zr1135     O1136   2.437       .  S
Zr1135     O1137   2.400       .  S
Zr1135     O1138   2.480       .  S
Zr1135     O1141   2.461       .  S
Zr1135     O1143   2.380       .  S
Zr1135     O1144   2.397       .  S
Zr1135     O1145   2.400       .  S
Zr1135     O1146   2.399       .  S
O1136      H1192   0.990       .  S
O1136      H1200   0.990       .  S
O1138      C1159   1.294       .  A
O1139     Zr1149   2.407       .  S
O1139      C1158   1.280       .  A
O1140     Zr1148   2.418       .  S
O1140      C1159   1.283       .  A
O1141      C1158   1.293       .  A
O1142      C1157   1.290       .  A
O1143     Zr1148   2.382       .  S
O1143     Zr1150   2.357       .  S
O1144     Zr1149   2.397       .  S
O1144     Zr1150   2.368       .  S
O1144      H1179   0.966       .  S
O1145     Zr1148   2.397       .  S
O1145     Zr1165   2.394       .  S
O1145      H1182   0.966       .  S
O1146     Zr1149   2.396       .  S
O1146     Zr1165   2.373       .  S
Zr1147     O1172   2.441       .  S
Zr1147     O1166   2.453       .  S
Zr1147     O1174   2.437       .  S
Zr1147     O1162   2.420       .  S
Zr1147     O1153   2.401       .  S
Zr1147     O1154   2.418       .  S
Zr1147     O1155   2.380       .  S
Zr1147     O1156   2.384       .  S
Zr1148     O1167   2.435       .  S
Zr1148     O1160   2.434       .  S
Zr1148     O1161   2.428       .  S
Zr1148     O1154   2.390       .  S
Zr1148     O1155   2.378       .  S
Zr1149     O1151   2.437       .  S
Zr1149     O1173   2.438       .  S
Zr1149     O1175   2.451       .  S
Zr1149     O1153   2.372       .  S
Zr1149     O1156   2.381       .  S
Zr1150     O1176   2.435       .  S
Zr1150     O1177   2.435       .  S
Zr1150     O1153   2.397       .  S
Zr1150     O1154   2.414       .  S
O1151      H1188   0.990       .  S
O1152      H1183   0.990       .  S
O1152      H1197   0.990       .  S
O1154      H1180   0.966       .  S
O1155     Zr1165   2.377       .  S
O1156     Zr1165   2.394       .  S
O1156      H1181   0.966       .  S
C1157      C1837   1.484       .  S
C1158      C1810   1.475       .  S
C1159      C1813   1.489       .  S
O1160      H1196   0.990       .  S
O1161      C1163   1.283       .  A
O1162      C1163   1.280       .  A
C1163      C1806   1.470       .  S
O1164     Zr1165   2.440       .  S
O1164      H1193   0.990       .  S
Zr1165     O1168   2.438       .  S
Zr1165     O1169   2.440       .  S
Zr1165     O1170   2.386       .  S
O1166      C1171   1.287       .  A
O1167      H1184   0.990       .  S
O1167      H1199   0.990       .  S
O1168      H1185   0.990       .  S
O1169      H1189   0.990       .  S
O1169      H1198   0.990       .  S
O1170      C1171   1.277       .  A
C1171      C1834   1.477       .  S
O1172      H1191   0.991       .  S
O1172      H1195   0.990       .  S
O1173      H1187   0.990       .  S
O1173      H1194   0.990       .  S
O1174      C1178   1.285       .  A
O1175      C1178   1.288       .  A
O1177      H1190   0.990       .  S
C1178      C1801   1.487       .  S
Zr1201     O1202   2.441       .  S
Zr1201     O1203   2.417       .  S
Zr1201     O1204   2.424       .  S
Zr1201     O1207   2.424       .  S
Zr1201     O1209   2.381       .  S
Zr1201     O1210   2.381       .  S
Zr1201     O1211   2.398       .  S
Zr1201     O1212   2.390       .  S
O1202      H1258   0.990       .  S
O1202      H1266   0.990       .  S
O1203      C3095   1.281   1_455  A
O1204      C1225   1.282       .  A
O1205     Zr1215   2.409       .  S
O1205      C1224   1.279       .  A
O1206     Zr1214   2.469       .  S
O1206      C1225   1.293       .  A
O1207      C1224   1.286       .  A
O1208     Zr3088   2.440       .  S
O1208      C1223   1.287       .  A
O1209     Zr1214   2.386       .  S
O1209     Zr1216   2.364       .  S
O1210     Zr1215   2.389       .  S
O1210     Zr1216   2.379       .  S
O1210      H1245   0.966       .  S
O1211     Zr1214   2.398       .  S
O1211     Zr1231   2.393       .  S
O1211      H1248   0.966       .  S
O1212     Zr1215   2.389       .  S
O1212     Zr1231   2.380       .  S
Zr1213     O1238   2.443       .  S
Zr1213     O1232   2.456       .  S
Zr1213     O1240   2.482       .  S
Zr1213     O1228   2.424       .  S
Zr1213     O1219   2.385       .  S
Zr1213     O1220   2.430       .  S
Zr1213     O1221   2.389       .  S
Zr1213     O1222   2.386       .  S
Zr1214     O1233   2.437       .  S
Zr1214     O1226   2.435       .  S
Zr1214     O1227   2.449       .  S
Zr1214     O1220   2.411       .  S
Zr1214     O1221   2.396       .  S
Zr1215     O1217   2.436       .  S
Zr1215     O1239   2.438       .  S
Zr1215     O1241   2.419       .  S
Zr1215     O1219   2.373       .  S
Zr1215     O1222   2.388       .  S
Zr1216     O1242   2.435       .  S
Zr1216     O1243   2.435       .  S
Zr1216     O3090   2.435   1_455  S
Zr1216     O3080   2.439   1_455  S
Zr1216     O1219   2.383       .  S
Zr1216     O1220   2.413       .  S
O1217      H1254   0.990       .  S
O1218     Zr3088   2.437       .  S
O1218      H1249   0.990       .  S
O1218      H1263   0.990       .  S
O1220      H1246   0.966       .  S
O1221     Zr1231   2.376       .  S
O1222     Zr1231   2.402       .  S
O1222      H1247   0.966       .  S
C1223      O3075   1.279       .  A
C1223      C1858   1.473       .  S
C1224      C1818   1.465       .  S
C1225      C1793   1.490       .  S
O1226      H1262   0.990   1_455  S
O1227      C1229   1.288       .  A
O1228      C1229   1.281       .  A
C1229      C1822   1.482       .  S
O1230     Zr1231   2.437       .  S
O1230      H1259   0.990       .  S
Zr1231     O1234   2.436       .  S
Zr1231     O1235   2.439       .  S
Zr1231     O1236   2.384       .  S
O1232      C1237   1.286       .  A
O1233      H1250   0.990       .  S
O1233      H1265   0.990       .  S
O1234      H1251   0.990       .  S
O1235      H1255   0.990       .  S
O1235      H1264   0.990       .  S
O1236      C1237   1.275       .  A
C1237      C1862   1.472       .  S
O1238      H1257   0.990       .  S
O1238      H1261   0.990       .  S
O1239      H1253   0.990       .  S
O1239      H1260   0.990       .  S
O1240      C1244   1.292       .  A
O1241      C1244   1.281       .  A
O1242      H3124   0.990       .  S
O1243      H1256   0.990       .  S
C1244      C1797   1.485       .  S
H1252      O3114   0.990       .  S
Zr1267     O1268   2.436       .  S
Zr1267     O1269   2.409       .  S
Zr1267     O1270   2.487       .  S
Zr1267     O1273   2.463       .  S
Zr1267     O1275   2.377       .  S
Zr1267     O1276   2.398       .  S
Zr1267     O1277   2.406       .  S
Zr1267     O1278   2.400       .  S
O1268      H1324   0.990       .  S
O1268      H1332   0.990       .  S
O1269      C3161   1.278       .  A
O1270      C1291   1.296       .  A
O1271     Zr1281   2.414       .  S
O1271      C1290   1.282       .  A
O1272     Zr1280   2.412       .  S
O1272      C1291   1.280       .  A
O1273      C1290   1.293       .  A
O1274     Zr3154   2.462   1_455  S
O1274      C1289   1.291       .  A
O1275     Zr1280   2.394       .  S
O1275     Zr1282   2.359       .  S
O1276     Zr1281   2.392       .  S
O1276     Zr1282   2.369       .  S
O1276      H1311   0.966       .  S
O1277     Zr1280   2.401       .  S
O1277     Zr1297   2.401       .  S
O1277      H1314   0.966       .  S
O1278     Zr1281   2.398       .  S
O1278     Zr1297   2.375       .  S
Zr1279     O1304   2.446       .  S
Zr1279     O1298   2.451       .  S
Zr1279     O1306   2.418       .  S
Zr1279     O1294   2.412       .  S
Zr1279     O1285   2.409       .  S
Zr1279     O1286   2.415       .  S
Zr1279     O1287   2.375       .  S
Zr1279     O1288   2.377       .  S
Zr1280     O1299   2.436       .  S
Zr1280     O1292   2.434       .  S
Zr1280     O1293   2.447       .  S
Zr1280     O1286   2.390       .  S
Zr1280     O1287   2.373       .  S
Zr1281     O1283   2.438       .  S
Zr1281     O1305   2.440       .  S
Zr1281     O1307   2.456       .  S
Zr1281     O1285   2.376       .  S
Zr1281     O1288   2.381       .  S
Zr1282     O1308   2.435       .  S
Zr1282     O1309   2.434       .  S
Zr1282     O3156   2.438       .  S
Zr1282     O3146   2.468       .  S
Zr1282     O1285   2.406       .  S
Zr1282     O1286   2.419       .  S
O1283      H1320   0.990       .  S
O1284     Zr3154   2.436   1_455  S
O1284      H1315   0.990       .  S
O1284      H1329   0.990       .  S
O1286      H1312   0.966       .  S
O1287     Zr1297   2.377       .  S
O1288     Zr1297   2.388       .  S
O1288      H1313   0.966       .  S
C1289      O3141   1.278   1_455  A
C1289      C1809   1.479       .  S
C1291      C1794   1.490       .  S
O1292      H1328   0.990       .  S
O1293      C1295   1.287       .  A
O1294      C1295   1.280       .  A
C1295      C1842   1.476       .  S
O1296     Zr1297   2.439       .  S
O1296      H1325   0.990       .  S
Zr1297     O1300   2.438       .  S
Zr1297     O1301   2.440       .  S
Zr1297     O1302   2.399       .  S
O1298      C1303   1.287       .  A
O1299      H1316   0.990       .  S
O1299      H1331   0.990       .  S
O1300      H1317   0.990       .  S
O1301      H1321   0.990       .  S
O1301      H1330   0.990       .  S
O1302      C1303   1.279       .  A
C1303      C1805   1.478       .  S
O1304      H1323   0.990       .  S
O1304      H1327   0.990       .  S
O1305      H1319   0.990       .  S
O1305      H1326   0.990       .  S
O1306      C1310   1.278       .  A
O1307      C1310   1.289       .  A
O1308      H3190   0.990       .  S
O1309      H1322   0.990       .  S
C1310      C1789   1.478       .  S
H1318      O3180   0.990       .  S
Zr1333     O1334   2.436       .  S
Zr1333     O1335   2.398       .  S
Zr1333     O1336   2.508       .  S
Zr1333     O1339   2.476       .  S
Zr1333     O1341   2.376       .  S
Zr1333     O1342   2.401       .  S
Zr1333     O1343   2.406       .  S
Zr1333     O1344   2.401       .  S
O1334      H1390   0.990       .  S
O1334      H1398   0.990       .  S
O1335      C1355   1.277       .  A
O1336      C1357   1.299       .  A
O1337     Zr1347   2.412       .  S
O1337      C1356   1.282       .  A
O1338     Zr1346   2.434       .  S
O1338      C1357   1.284       .  A
O1339      C1356   1.296       .  A
O1340     Zr1348   2.442       .  S
O1340      C1355   1.288       .  A
O1341     Zr1346   2.378       .  S
O1341     Zr1348   2.360       .  S
O1342     Zr1347   2.394       .  S
O1342     Zr1348   2.374       .  S
O1342      H1377   0.965       .  S
O1343     Zr1346   2.396       .  S
O1343     Zr1363   2.406       .  S
O1343      H1380   0.966       .  S
O1344     Zr1347   2.399       .  S
O1344     Zr1363   2.379       .  S
Zr1345     O1370   2.449       .  S
Zr1345     O1364   2.458       .  S
Zr1345     O1372   2.438       .  S
Zr1345     O1360   2.400       .  S
Zr1345     O1351   2.399       .  S
Zr1345     O1352   2.418       .  S
Zr1345     O1353   2.383       .  S
Zr1345     O1354   2.372       .  S
Zr1346     O1365   2.434       .  S
Zr1346     O1358   2.434       .  S
Zr1346     O1359   2.434       .  S
Zr1346     O1352   2.395       .  S
Zr1346     O1353   2.384       .  S
Zr1347     O1349   2.437       .  S
Zr1347     O1371   2.438       .  S
Zr1347     O1373   2.455       .  S
Zr1347     O1351   2.372       .  S
Zr1347     O1354   2.380       .  S
Zr1348     O1374   2.435       .  S
Zr1348     O1375   2.436       .  S
Zr1348     O1350   2.437       .  S
Zr1348     O1351   2.397       .  S
Zr1348     O1352   2.403       .  S
O1349      H1386   0.990       .  S
O1350      H1381   0.990       .  S
O1350      H1395   0.990       .  S
O1352      H1378   0.966       .  S
O1353     Zr1363   2.375       .  S
O1354     Zr1363   2.390       .  S
O1354      H1379   0.966       .  S
C1355      C1781   1.468       .  S
C1356      C3642   1.484   1_455  S
C1357      C1785   1.510       .  S
O1358      H1394   0.990       .  S
O1359      C1361   1.284       .  A
O1360      C1361   1.279       .  A
C1361      C1774   1.462       .  S
O1362     Zr1363   2.438       .  S
O1362      H1391   0.990       .  S
Zr1363     O1366   2.436       .  S
Zr1363     O1367   2.439       .  S
Zr1363     O1368   2.408       .  S
O1364      C1369   1.289       .  A
O1365      H1382   0.990       .  S
O1365      H1397   0.990       .  S
O1366      H1383   0.990       .  S
O1367      H1387   0.990       .  S
O1367      H1396   0.990       .  S
O1368      C1369   1.280       .  A
C1369      C1777   1.482       .  S
O1370      H1389   0.990       .  S
O1370      H1393   0.990       .  S
O1371      H1385   0.990       .  S
O1371      H1392   0.990       .  S
O1372      C1376   1.283       .  A
O1373      C1376   1.289       .  A
O1374      H1384   0.989       .  S
O1375      H1388   0.990       .  S
C1376      C1798   1.489       .  S
Zr1399     O1400   2.438       .  S
Zr1399     O1401   2.408       .  S
Zr1399     O1402   2.454       .  S
Zr1399     O1405   2.438       .  S
Zr1399     O1407   2.378       .  S
Zr1399     O1408   2.391       .  S
Zr1399     O1409   2.402       .  S
Zr1399     O1410   2.396       .  S
O1400      H1456   0.990       .  S
O1400      H1464   0.990       .  S
O1401      C1421   1.279       .  A
O1402      C1423   1.288       .  A
O1403     Zr1413   2.413       .  S
O1403      C1422   1.279       .  A
O1404     Zr1412   2.491       .  S
O1404      C1423   1.297       .  A
O1405      C1422   1.289       .  A
O1406     Zr1414   2.420       .  S
O1406      C1421   1.284       .  A
O1407     Zr1412   2.381       .  S
O1407     Zr1414   2.366       .  S
O1408     Zr1413   2.389       .  S
O1408     Zr1414   2.378       .  S
O1408      H1443   0.965       .  S
O1409     Zr1412   2.394       .  S
O1409     Zr1429   2.406       .  S
O1409      H1446   0.966       .  S
O1410     Zr1413   2.395       .  S
O1410     Zr1429   2.382       .  S
Zr1411     O1436   2.441       .  S
Zr1411     O1430   2.451       .  S
Zr1411     O1438   2.470       .  S
Zr1411     O1426   2.411       .  S
Zr1411     O1417   2.387       .  S
Zr1411     O1418   2.423       .  S
Zr1411     O1419   2.390       .  S
Zr1411     O1420   2.381       .  S
Zr1412     O1431   2.437       .  S
Zr1412     O1424   2.434       .  S
Zr1412     O1425   2.455       .  S
Zr1412     O1418   2.406       .  S
Zr1412     O1419   2.400       .  S
Zr1413     O1415   2.438       .  S
Zr1413     O1437   2.441       .  S
Zr1413     O1439   2.436       .  S
Zr1413     O1417   2.380       .  S
Zr1413     O1420   2.390       .  S
Zr1414     O1440   2.435       .  S
Zr1414     O1441   2.434       .  S
Zr1414     O1416   2.435       .  S
Zr1414     O1417   2.379       .  S
Zr1414     O1418   2.397       .  S
O1415      H1452   0.990       .  S
O1416      H1447   0.990       .  S
O1416      H1461   0.990       .  S
O1418      H1444   0.966       .  S
O1419     Zr1429   2.373       .  S
O1420     Zr1429   2.396       .  S
O1420      H1445   0.966       .  S
C1421      C1766   1.464       .  S
C1423      C1786   1.514       .  S
O1424      H1460   0.990       .  S
O1425      C1427   1.289       .  A
O1426      C1427   1.280       .  A
C1427      C1753   1.478       .  S
O1428     Zr1429   2.438       .  S
O1428      H1457   0.990       .  S
Zr1429     O1432   2.436       .  S
Zr1429     O1433   2.440       .  S
Zr1429     O1434   2.404       .  S
O1430      C1435   1.286       .  A
O1431      H1448   0.990       .  S
O1431      H1463   0.990       .  S
O1432      H1449   0.990       .  S
O1433      H1453   0.990       .  S
O1433      H1462   0.990       .  S
O1434      C1435   1.279       .  A
C1435      C1761   1.478       .  S
O1436      H1455   0.990       .  S
O1436      H1459   0.991       .  S
O1437      H1451   0.990       .  S
O1437      H1458   0.990       .  S
O1438      C1442   1.288       .  A
O1439      C1442   1.285       .  A
O1440      H1450   0.990       .  S
O1441      H1454   0.990       .  S
C1442      C1802   1.488       .  S
Zr1465     O1466   2.438       .  S
Zr1465     O1467   2.405       .  S
Zr1465     O1468   2.444       .  S
Zr1465     O1471   2.452       .  S
Zr1465     O1473   2.384       .  S
Zr1465     O1474   2.390       .  S
Zr1465     O1475   2.398       .  S
Zr1465     O1476   2.387       .  S
O1466      H1522   0.990       .  S
O1466      H1530   0.990       .  S
O1467      C3359   1.278   1_455  A
O1468      C1489   1.287       .  A
O1469     Zr1479   2.408       .  S
O1469      C1488   1.279   1_565  A
O1470     Zr1478   2.457       .  S
O1470      C1489   1.291       .  A
O1471      C1488   1.292   1_565  A
O1472     Zr3352   2.460       .  S
O1472      C1487   1.291       .  A
O1473     Zr1478   2.381       .  S
O1473     Zr1480   2.355       .  S
O1474     Zr1479   2.393       .  S
O1474     Zr1480   2.376       .  S
O1474      H1509   0.966       .  S
O1475     Zr1478   2.396       .  S
O1475     Zr1495   2.390       .  S
O1475      H1512   0.966       .  S
O1476     Zr1479   2.387       .  S
O1476     Zr1495   2.373       .  S
Zr1477     O1502   2.443       .  S
Zr1477     O1496   2.482       .  S
Zr1477     O1504   2.485       .  S
Zr1477     O1492   2.433       .  S
Zr1477     O1483   2.399       .  S
Zr1477     O1484   2.436       .  S
Zr1477     O1485   2.387       .  S
Zr1477     O1486   2.384       .  S
Zr1478     O1497   2.438       .  S
Zr1478     O1490   2.434       .  S
Zr1478     O1491   2.439       .  S
Zr1478     O1484   2.406       .  S
Zr1478     O1485   2.392       .  S
Zr1479     O1481   2.436       .  S
Zr1479     O1503   2.440       .  S
Zr1479     O1505   2.422       .  S
Zr1479     O1483   2.379       .  S
Zr1479     O1486   2.391       .  S
Zr1480     O1506   2.433       .  S
Zr1480     O1507   2.435   1_455  S
Zr1480     O3354   2.438   1_455  S
Zr1480     O3344   2.453   1_455  S
Zr1480     O1483   2.394       .  S
Zr1480     O1484   2.418       .  S
O1481      H1518   0.990       .  S
O1482     Zr3352   2.437       .  S
O1482      H1513   0.990       .  S
O1482      H1527   0.990       .  S
O1484      H1510   0.966       .  S
O1485     Zr1495   2.376       .  S
O1486     Zr1495   2.402       .  S
O1486      H1511   0.966       .  S
C1487      O3339   1.279       .  A
C1487      C1745   1.484       .  S
C1489      C1742   1.493       .  S
O1490      H1526   0.990       .  S
O1491      C1493   1.285       .  A
O1492      C1493   1.282       .  A
C1493      C1778   1.479       .  S
O1494     Zr1495   2.439       .  S
O1494      H1523   0.990       .  S
Zr1495     O1498   2.437       .  S
Zr1495     O1499   2.439       .  S
Zr1495     O1500   2.378       .  S
O1496      C1501   1.292       .  A
O1497      H1514   0.990       .  S
O1497      H1529   0.990       .  S
O1498      H1515   0.990       .  S
O1499      H1519   0.990       .  S
O1499      H1528   0.990       .  S
O1500      C1501   1.275       .  A
C1501      C1750   1.487       .  S
O1502      H1521   0.991       .  S
O1502      H1525   0.990       .  S
O1503      H1517   0.990       .  S
O1503      H1524   0.990       .  S
O1504      C1508   1.293       .  A
O1505      C1508   1.282       .  A
O1506      H3388   0.990       .  S
O1507      H1520   0.990   1_655  S
C1508      C1826   1.491       .  S
H1516      O3378   0.990       .  S
Zr1531     O1532   2.442       .  S
Zr1531     O1533   2.414       .  S
Zr1531     O1534   2.386       .  S
Zr1531     O1537   2.378       .  S
Zr1531     O1539   2.378       .  S
Zr1531     O1540   2.381       .  S
Zr1531     O1541   2.393       .  S
Zr1531     O1542   2.393       .  S
O1532      H1588   0.991       .  S
O1532      H1596   0.990       .  S
O1533      C3425   1.279       .  A
O1534      C1555   1.273       .  A
O1535     Zr1545   2.445       .  S
O1535      C1554   1.287       .  A
O1536     Zr1544   2.481       .  S
O1536      C1555   1.295       .  A
O1537      C1554   1.273       .  A
O1538     Zr3418   2.436   1_455  S
O1538      C1553   1.286       .  A
O1539     Zr1544   2.382       .  S
O1539     Zr1546   2.364       .  S
O1540     Zr1545   2.386       .  S
O1540     Zr1546   2.375       .  S
O1540      H1575   0.966       .  S
O1541     Zr1544   2.394       .  S
O1541     Zr1561   2.394       .  S
O1541      H1578   0.966       .  S
O1542     Zr1545   2.388       .  S
O1542     Zr1561   2.388       .  S
Zr1543     O1568   2.442       .  S
Zr1543     O1562   2.464       .  S
Zr1543     O1570   2.461       .  S
Zr1543     O1558   2.431       .  S
Zr1543     O1549   2.398       .  S
Zr1543     O1550   2.428       .  S
Zr1543     O1551   2.387       .  S
Zr1543     O1552   2.386       .  S
Zr1544     O1563   2.434       .  S
Zr1544     O1556   2.436       .  S
Zr1544     O1557   2.442       .  S
Zr1544     O1550   2.408       .  S
Zr1544     O1551   2.405       .  S
Zr1545     O1547   2.436       .  S
Zr1545     O1569   2.439       .  S
Zr1545     O1571   2.436       .  S
Zr1545     O1549   2.383       .  S
Zr1545     O1552   2.396       .  S
Zr1546     O1572   2.434       .  S
Zr1546     O1573   2.435       .  S
Zr1546     O3420   2.435       .  S
Zr1546     O3410   2.449       .  S
Zr1546     O1549   2.392       .  S
Zr1546     O1550   2.408       .  S
O1547      H1584   0.990       .  S
O1548     Zr3418   2.436   1_455  S
O1548      H1579   0.990       .  S
O1548      H1593   0.990       .  S
O1550      H1576   0.966       .  S
O1551     Zr1561   2.379       .  S
O1552     Zr1561   2.396       .  S
O1552      H1577   0.966       .  S
C1553      O3405   1.278   1_455  A
C1553      C1757   1.469       .  S
C1554      C1733   1.461       .  S
C1555      C1741   1.475       .  S
O1556      H1592   0.990       .  S
O1557      C1559   1.287       .  A
O1558      C1559   1.282       .  A
C1559      C1737   1.479       .  S
O1560     Zr1561   2.436       .  S
O1560      H1589   0.990       .  S
Zr1561     O1564   2.436       .  S
Zr1561     O1565   2.438       .  S
Zr1561     O1566   2.396       .  S
O1562      C1567   1.288       .  A
O1563      H1580   0.990       .  S
O1563      H1595   0.990       .  S
O1564      H1581   0.990       .  S
O1565      H1585   0.990       .  S
O1565      H1594   0.990       .  S
O1566      C1567   1.277       .  A
C1567      C1754   1.482       .  S
O1568      H1587   0.990       .  S
O1568      H1591   0.990       .  S
O1569      H1583   0.990       .  S
O1569      H1590   0.990       .  S
O1570      C1574   1.288       .  A
O1571      C1574   1.284       .  A
O1572      H3454   0.990       .  S
O1573      H1586   0.990       .  S
C1574      C1830   1.487       .  S
H1582      O3444   0.990   1_655  S
Zr1597     O1598   2.439       .  S
Zr1597     O1599   2.414       .  S
Zr1597     O1600   2.467       .  S
Zr1597     O1603   2.469       .  S
Zr1597     O1605   2.389       .  S
Zr1597     O1606   2.390       .  S
Zr1597     O1607   2.410       .  S
Zr1597     O1608   2.398       .  S
O1598      H1654   0.990       .  S
O1598      H1662   0.990       .  S
O1600      C1621   1.291       .  A
O1601     Zr1611   2.403       .  S
O1601      C1620   1.278       .  A
O1602     Zr1610   2.434       .  S
O1602      C1621   1.285       .  A
O1603      C1620   1.292       .  A
O1604      C1619   1.292       .  A
O1605     Zr1610   2.388       .  S
O1605     Zr1612   2.367       .  S
O1606     Zr1611   2.387       .  S
O1606     Zr1612   2.380       .  S
O1606      H1641   0.966       .  S
O1607     Zr1610   2.402       .  S
O1607     Zr1627   2.395       .  S
O1607      H1644   0.966       .  S
O1608     Zr1611   2.389       .  S
O1608     Zr1627   2.378       .  S
Zr1609     O1634   2.441       .  S
Zr1609     O1628   2.435       .  S
Zr1609     O1636   2.458       .  S
Zr1609     O1624   2.419       .  S
Zr1609     O1615   2.393       .  S
Zr1609     O1616   2.413       .  S
Zr1609     O1617   2.386       .  S
Zr1609     O1618   2.385       .  S
Zr1610     O1629   2.436       .  S
Zr1610     O1622   2.435       .  S
Zr1610     O1623   2.447       .  S
Zr1610     O1616   2.392       .  S
Zr1610     O1617   2.379       .  S
Zr1611     O1613   2.436       .  S
Zr1611     O1635   2.440       .  S
Zr1611     O1637   2.412       .  S
Zr1611     O1615   2.386       .  S
Zr1611     O1618   2.381       .  S
Zr1612     O1638   2.435       .  S
Zr1612     O1639   2.435   1_565  S
Zr1612     O1615   2.385       .  S
Zr1612     O1616   2.400       .  S
O1613      H1650   0.990       .  S
O1614      H1645   0.990       .  S
O1614      H1659   0.990       .  S
O1616      H1642   0.966       .  S
O1617     Zr1627   2.373       .  S
O1618     Zr1627   2.390       .  S
O1618      H1643   0.966       .  S
C1619      C1769   1.481       .  S
C1620      C1746   1.477       .  S
C1621      C1729   1.490       .  S
O1622      H1658   0.990       .  S
O1623      C1625   1.288       .  A
O1624      C1625   1.280       .  A
C1625      C1749   1.476       .  S
O1626     Zr1627   2.439       .  S
O1626      H1655   0.990       .  S
Zr1627     O1630   2.437       .  S
Zr1627     O1631   2.439       .  S
Zr1627     O1632   2.394       .  S
O1628      C1633   1.283       .  A
O1629      H1646   0.990       .  S
O1629      H1661   0.990       .  S
O1630      H1647   0.990       .  S
O1631      H1651   0.990       .  S
O1631      H1660   0.990       .  S
O1632      C1633   1.279       .  A
C1633      C1773   1.469       .  S
O1634      H1653   0.990       .  S
O1634      H1657   0.990       .  S
O1635      H1649   0.990       .  S
O1635      H1656   0.990       .  S
O1636      C1640   1.287       .  A
O1637      C1640   1.280       .  A
O1639      H1652   0.990   1_545  S
C1640      C1850   1.476       .  S
Zr1663     O1664   2.439       .  S
Zr1663     O1665   2.416       .  S
Zr1663     O1666   2.429       .  S
Zr1663     O1669   2.418       .  S
Zr1663     O1671   2.377       .  S
Zr1663     O1672   2.383       .  S
Zr1663     O1673   2.395       .  S
Zr1663     O1674   2.394       .  S
O1664      H1720   0.990       .  S
O1664      H1728   0.990       .  S
O1666      C1687   1.283       .  A
O1667     Zr1677   2.413       .  S
O1667      C1686   1.279       .  A
O1668     Zr1676   2.443       .  S
O1668      C1687   1.288       .  A
O1669      C1686   1.284       .  A
O1670      C1685   1.274       .  A
O1671     Zr1676   2.384       .  S
O1671     Zr1678   2.362       .  S
O1672     Zr1677   2.392       .  S
O1672     Zr1678   2.377       .  S
O1672      H1707   0.966       .  S
O1673     Zr1676   2.394       .  S
O1673     Zr1693   2.393       .  S
O1673      H1710   0.966       .  S
O1674     Zr1677   2.388       .  S
O1674     Zr1693   2.380       .  S
Zr1675     O1700   2.444       .  S
Zr1675     O1694   2.478       .  S
Zr1675     O1702   2.473       .  S
Zr1675     O1690   2.428       .  S
Zr1675     O1681   2.391       .  S
Zr1675     O1682   2.430       .  S
Zr1675     O1683   2.384       .  S
Zr1675     O1684   2.385       .  S
Zr1676     O1695   2.437       .  S
Zr1676     O1688   2.434       .  S
Zr1676     O1689   2.428       .  S
Zr1676     O1682   2.403       .  S
Zr1676     O1683   2.391       .  S
Zr1677     O1679   2.436       .  S
Zr1677     O1701   2.441       .  S
Zr1677     O1703   2.420       .  S
Zr1677     O1681   2.376       .  S
Zr1677     O1684   2.392       .  S
Zr1678     O1704   2.435       .  S
Zr1678     O1705   2.435       .  S
Zr1678     O1681   2.383       .  S
Zr1678     O1682   2.418       .  S
O1679      H1716   0.990       .  S
O1680      H1711   0.990       .  S
O1680      H1725   0.990       .  S
O1682      H1708   0.966       .  S
O1683     Zr1693   2.378       .  S
O1684     Zr1693   2.399       .  S
O1684      H1709   0.966       .  S
C1685      C1734   1.460       .  S
C1686      C3637   1.463       .  S
C1687      C1730   1.483       .  S
O1688      H1724   0.989       .  S
O1689      C1691   1.283       .  A
O1690      C1691   1.281       .  A
C1691      C1762   1.473       .  S
O1692     Zr1693   2.438       .  S
O1692      H1721   0.990       .  S
Zr1693     O1696   2.436       .  S
Zr1693     O1697   2.439       .  S
Zr1693     O1698   2.387       .  S
O1694      C1699   1.291       .  A
O1695      H1712   0.990       .  S
O1695      H1727   0.990       .  S
O1696      H1713   0.990       .  S
O1697      H1717   0.990       .  S
O1697      H1726   0.990       .  S
O1698      C1699   1.276       .  A
C1699      C1738   1.486       .  S
O1700      H1719   0.991       .  S
O1700      H1723   0.990       .  S
O1701      H1715   0.990       .  S
O1701      H1722   0.990       .  S
O1702      C1706   1.291       .  A
O1703      C1706   1.281       .  A
O1705      H1718   0.990       .  S
C1706      C1790   1.478       .  S
C1729      H1731   1.087   1_554  S
C1730      H1732   1.087       .  S
C1733      H1735   1.088       .  S
C1733      C1734   1.333       .  D
C1734      H1736   1.087       .  S
C1737      H1739   1.087       .  S
C1737      C1738   1.356       .  D
C1738      H1740   1.086       .  S
C1741      H1743   1.087   1_556  S
C1741      C3614   1.333   1_556  D
C1742      H1744   1.087   1_554  S
C1742      C3613   1.348   1_554  D
C1745      H1747   1.087       .  S
C1745      C1746   1.339       .  D
C1746      H1748   1.088       .  S
C1749      H1751   1.087       .  S
C1749      C1750   1.358       .  D
C1750      H1752   1.086       .  S
C1753      H1755   1.087       .  S
C1753      C1754   1.355       .  D
C1754      H1756   1.086       .  S
C1757      H1759   1.087       .  S
C1757      C1758   1.338       .  D
C1758      H1760   1.087       .  S
C1761      H1763   1.087       .  S
C1761      C1762   1.350       .  D
C1762      H1764   1.087       .  S
C1765      C3558   1.463       .  S
C1765      H1767   1.087       .  S
C1765      C1766   1.340       .  D
C1766      H1768   1.087       .  S
C1769      H1771   1.087       .  S
C1769      C1770   1.339       .  D
C1770      C3228   1.479       .  S
C1770      H1772   1.087       .  S
C1773      H1775   1.087       .  S
C1773      C1774   1.348       .  D
C1774      H1776   1.087       .  S
C1777      H1779   1.086       .  S
C1777      C1778   1.353       .  D
C1778      H1780   1.087       .  S
C1781      H1783   1.087       .  S
C1781      C1782   1.336       .  D
C1782      H1784   1.087       .  S
C1785      H1787   1.087   1_554  S
C1785      C1786   1.353   1_554  D
C1786      H1788   1.086       .  S
C1789      H1791   1.086       .  S
C1789      C1790   1.342       .  D
C1790      H1792   1.088       .  S
C1793      H1795   1.087   1_455  S
C1793      C3666   1.342   1_455  D
C1794      H1796   1.087       .  S
C1794      C3665   1.343       .  D
C1797      H1799   1.088       .  S
C1797      C1798   1.345       .  D
C1798      H1800   1.086       .  S
C1801      H1803   1.087       .  S
C1801      C1802   1.351       .  D
C1802      H1804   1.086       .  S
C1805      H1807   1.086       .  S
C1805      C1806   1.350       .  D
C1806      H1808   1.087       .  S
C1809      H1811   1.087       .  S
C1809      C1810   1.337       .  D
C1810      H1812   1.087       .  S
C1813      H1815   1.087       .  S
C1814      H1816   1.087       .  S
C1817      H1819   1.087       .  S
C1817      C1818   1.338       .  D
C1818      H1820   1.087       .  S
C1821      H1823   1.086       .  S
C1821      C1822   1.355       .  D
C1822      H1824   1.086       .  S
C1825      H1827   1.086       .  S
C1825      C1826   1.346       .  D
C1826      H1828   1.088       .  S
C1829      H1831   1.086       .  S
C1829      C1830   1.348       .  D
C1830      H1832   1.087       .  S
C1833      H1835   1.087       .  S
C1833      C1834   1.351       .  D
C1834      H1836   1.086       .  S
C1837      H1839   1.087       .  S
C1837      C1838   1.341       .  D
C1838      C2898   1.480   1_455  S
C1838      H1840   1.087       .  S
C1841      H1843   1.086       .  S
C1841      C1842   1.352       .  D
C1842      H1844   1.087       .  S
C1845      H1847   1.087       .  S
C1845      C1846   1.340       .  D
C1846      H1848   1.087       .  S
C1849      H1851   1.086       .  S
C1849      C1850   1.345       .  D
C1850      H1852   1.088       .  S
C1853      H1855   1.086       .  S
C1853      C1854   1.347       .  D
C1854      H1856   1.087       .  S
C1857      H1859   1.087       .  S
C1857      C1858   1.339       .  D
C1858      H1860   1.087       .  S
C1861      H1863   1.087       .  S
C1861      C1862   1.353       .  D
C1862      H1864   1.087       .  S
C1865      H1867   1.087       .  S
C1865      C1866   1.340       .  D
C1866      C2964   1.472       .  S
C1866      H1868   1.087       .  S
C1869      H1871   1.087       .  S
C1869      C1870   1.346       .  D
C1870      H1872   1.087       .  S
Zr1873     O1874   2.437       .  S
Zr1873     O1875   2.411       .  S
Zr1873     O1876   2.438       .  S
Zr1873     O1879   2.429       .  S
Zr1873     O1881   2.381       .  S
Zr1873     O1882   2.385       .  S
Zr1873     O1883   2.401       .  S
Zr1873     O1884   2.395       .  S
O1874      H1930   0.990       .  S
O1874      H1938   0.990       .  S
O1875      C1895   1.279       .  A
O1876      C1897   1.285       .  A
O1877     Zr1887   2.433       .  S
O1877      C1896   1.283       .  A
O1878     Zr1886   2.442       .  S
O1878      C1897   1.288       .  A
O1879      C1896   1.286       .  A
O1880     Zr1888   2.442       .  S
O1880      C1895   1.286       .  A
O1881     Zr1886   2.390       .  S
O1881     Zr1888   2.367       .  S
O1882     Zr1887   2.391       .  S
O1882     Zr1888   2.375       .  S
O1882      H1917   0.966       .  S
O1883     Zr1886   2.397       .  S
O1883     Zr1903   2.394       .  S
O1883      H1920   0.966       .  S
O1884     Zr1887   2.393       .  S
O1884     Zr1903   2.386       .  S
Zr1885     O1910   2.443       .  S
Zr1885     O1904   2.446       .  S
Zr1885     O1912   2.457       .  S
Zr1885     O1900   2.417       .  S
Zr1885     O1891   2.394       .  S
Zr1885     O1892   2.419       .  S
Zr1885     O1893   2.383       .  S
Zr1885     O1894   2.385       .  S
Zr1886     O1905   2.436       .  S
Zr1886     O1898   2.433       .  S
Zr1886     O1899   2.446       .  S
Zr1886     O1892   2.398       .  S
Zr1886     O1893   2.388       .  S
Zr1887     O1889   2.436       .  S
Zr1887     O1911   2.440       .  S
Zr1887     O1913   2.436       .  S
Zr1887     O1891   2.384       .  S
Zr1887     O1894   2.396       .  S
Zr1888     O1914   2.434       .  S
Zr1888     O1915   2.434       .  S
Zr1888     O1890   2.436       .  S
Zr1888     O1891   2.386       .  S
Zr1888     O1892   2.408       .  S
O1889      H1926   0.990       .  S
O1890      H1921   0.990       .  S
O1890      H1935   0.990       .  S
O1892      H1918   0.966       .  S
O1893     Zr1903   2.379       .  S
O1894     Zr1903   2.399       .  S
O1894      H1919   0.965       .  S
C1895      C2801   1.474       .  S
C1896      C3729   1.477       .  S
C1897      C2789   1.486       .  S
O1898      H1934   0.989       .  S
O1899      C1901   1.287       .  A
O1900      C1901   1.280       .  A
C1901      C2797   1.478       .  S
O1902     Zr1903   2.441       .  S
O1902      H1931   0.990       .  S
Zr1903     O1906   2.438       .  S
Zr1903     O1907   2.439       .  S
Zr1903     O1908   2.395       .  S
O1904      C1909   1.285       .  A
O1905      H1922   0.990       .  S
O1905      H1937   0.990       .  S
O1906      H1923   0.990       .  S
O1907      H1927   0.990       .  S
O1907      H1936   0.990       .  S
O1908      C1909   1.277       .  A
C1909      C2805   1.471       .  S
O1910      H1929   0.990       .  S
O1910      H1933   0.991       .  S
O1911      H1925   0.990       .  S
O1911      H1932   0.990       .  S
O1912      C1916   1.285       .  A
O1913      C1916   1.285       .  A
O1914      H1924   0.990       .  S
O1915      H1928   0.990       .  S
C1916      C2785   1.483       .  S
Zr1939     O1940   2.438       .  S
Zr1939     O1941   2.417       .  S
Zr1939     O1942   2.455       .  S
Zr1939     O1945   2.467       .  S
Zr1939     O1947   2.386       .  S
Zr1939     O1948   2.387       .  S
Zr1939     O1949   2.409       .  S
Zr1939     O1950   2.392       .  S
O1940      H1996   0.990       .  S
O1940      H2004   0.990       .  S
O1941      C1961   1.280       .  A
O1942      C1963   1.290       .  A
O1943     Zr1953   2.393       .  S
O1943      C1962   1.276       .  A
O1944     Zr1952   2.426       .  S
O1944      C1963   1.284       .  A
O1945      C1962   1.292       .  A
O1946     Zr1954   2.445       .  S
O1946      C1961   1.288       .  A
O1947     Zr1952   2.386       .  S
O1947     Zr1954   2.357       .  S
O1948     Zr1953   2.389       .  S
O1948     Zr1954   2.379       .  S
O1948      H1983   0.965       .  S
O1949     Zr1952   2.400       .  S
O1949     Zr1969   2.393       .  S
O1949      H1986   0.967       .  S
O1950     Zr1953   2.385       .  S
O1950     Zr1969   2.377       .  S
Zr1951     O1976   2.443       .  S
Zr1951     O1970   2.463       .  S
Zr1951     O1978   2.479       .  S
Zr1951     O1966   2.444       .  S
Zr1951     O1957   2.394       .  S
Zr1951     O1958   2.427       .  S
Zr1951     O1959   2.385       .  S
Zr1951     O1960   2.387       .  S
Zr1952     O1971   2.434       .  S
Zr1952     O1964   2.434       .  S
Zr1952     O1965   2.427       .  S
Zr1952     O1958   2.398       .  S
Zr1952     O1959   2.384       .  S
Zr1953     O1955   2.436       .  S
Zr1953     O1977   2.440       .  S
Zr1953     O1979   2.411       .  S
Zr1953     O1957   2.375       .  S
Zr1953     O1960   2.386       .  S
Zr1954     O1980   2.435       .  S
Zr1954     O1981   2.436       .  S
Zr1954     O1956   2.439       .  S
Zr1954     O1957   2.391       .  S
Zr1954     O1958   2.414       .  S
O1955      H1992   0.990       .  S
O1956      H1987   0.990       .  S
O1956      H2001   0.990       .  S
O1958      H1984   0.966       .  S
O1959     Zr1969   2.377       .  S
O1960     Zr1969   2.403       .  S
O1960      H1985   0.965       .  S
C1961      C2781   1.478       .  S
C1963      C2790   1.482       .  S
O1964      H2000   0.990       .  S
O1965      C1967   1.283       .  A
O1966      C1967   1.284       .  A
C1967      C2769   1.479       .  S
O1968     Zr1969   2.442       .  S
O1968      H1997   0.990       .  S
Zr1969     O1972   2.439       .  S
Zr1969     O1973   2.438       .  S
Zr1969     O1974   2.385       .  S
O1970      C1975   1.289       .  A
O1971      H1988   0.990       .  S
O1971      H2003   0.990       .  S
O1972      H1989   0.990       .  S
O1973      H1993   0.990       .  S
O1973      H2002   0.990       .  S
O1974      C1975   1.275       .  A
C1975      C2777   1.476       .  S
O1976      H1995   0.991       .  S
O1976      H1999   0.990       .  S
O1977      H1991   0.990       .  S
O1977      H1998   0.990       .  S
O1978      C1982   1.292       .  A
O1979      C1982   1.279       .  A
O1980      H1990   0.990       .  S
O1981      H1994   0.990       .  S
C1982      C2765   1.483       .  S
Zr2005     O2006   2.439       .  S
Zr2005     O2007   2.400       .  S
Zr2005     O2008   2.436       .  S
Zr2005     O2011   2.414       .  S
Zr2005     O2013   2.374       .  S
Zr2005     O2014   2.392       .  S
Zr2005     O2015   2.395       .  S
Zr2005     O2016   2.392       .  S
O2006      H2062   0.990       .  S
O2006      H2070   0.990       .  S
O2007      C2963   1.277       .  A
O2008      C2029   1.284       .  A
O2009     Zr2019   2.425       .  S
O2009      C2028   1.282       .  A
O2010     Zr2018   2.452       .  S
O2010      C2029   1.290       .  A
O2011      C2028   1.284       .  A
O2012     Zr2956   2.473   1_545  S
O2012      C2027   1.293       .  A
O2013     Zr2018   2.381       .  S
O2013     Zr2020   2.365       .  S
O2014     Zr2019   2.392       .  S
O2014     Zr2020   2.378       .  S
O2014      H2049   0.966       .  S
O2015     Zr2018   2.395       .  S
O2015     Zr2035   2.401       .  S
O2015      H2052   0.967       .  S
O2016     Zr2019   2.395       .  S
O2016     Zr2035   2.378       .  S
Zr2017     O2042   2.442       .  S
Zr2017     O2036   2.438       .  S
Zr2017     O2044   2.434       .  S
Zr2017     O2032   2.405       .  S
Zr2017     O2023   2.389       .  S
Zr2017     O2024   2.415       .  S
Zr2017     O2025   2.380       .  S
Zr2017     O2026   2.379       .  S
Zr2018     O2037   2.435       .  S
Zr2018     O2030   2.434       .  S
Zr2018     O2031   2.437       .  S
Zr2018     O2024   2.403       .  S
Zr2018     O2025   2.391       .  S
Zr2019     O2021   2.436       .  S
Zr2019     O2043   2.440       .  S
Zr2019     O2045   2.447       .  S
Zr2019     O2023   2.374       .  S
Zr2019     O2026   2.388       .  S
Zr2020     O2046   2.436       .  S
Zr2020     O2047   2.435       .  S
Zr2020     O2958   2.436       .  S
Zr2020     O2948   2.433       .  S
Zr2020     O2023   2.380       .  S
Zr2020     O2024   2.405       .  S
O2021      H2058   0.990       .  S
O2022     Zr2956   2.437   1_545  S
O2022      H2053   0.990       .  S
O2022      H2067   0.990       .  S
O2024      H2050   0.966       .  S
O2025     Zr2035   2.377       .  S
O2026     Zr2035   2.393       .  S
O2026      H2051   0.966       .  S
C2027      O2943   1.277   1_545  A
C2027      C2753   1.485       .  S
C2029      C2750   1.490       .  S
O2030      H2066   0.990       .  S
O2031      C2033   1.285       .  A
O2032      C2033   1.278       .  A
C2033      C2806   1.471       .  S
O2034     Zr2035   2.440       .  S
O2034      H2063   0.990       .  S
Zr2035     O2038   2.437       .  S
Zr2035     O2039   2.440       .  S
Zr2035     O2040   2.395       .  S
O2036      C2041   1.283       .  A
O2037      H2054   0.990       .  S
O2037      H2069   0.990       .  S
O2038      H2055   0.990       .  S
O2039      H2059   0.990       .  S
O2039      H2068   0.990       .  S
O2040      C2041   1.279       .  A
C2041      C2757   1.472       .  S
O2042      H2061   0.990       .  S
O2042      H2065   0.991       .  S
O2043      H2057   0.990       .  S
O2043      H2064   0.990       .  S
O2044      C2048   1.282       .  A
O2045      C2048   1.288       .  A
O2046      H2992   0.990       .  S
O2047      H2060   0.990       .  S
C2048      C2761   1.480       .  S
H2056      O2982   0.990       .  S
Zr2071     O2072   2.437       .  S
Zr2071     O2073   2.415       .  S
Zr2071     O2074   2.427       .  S
Zr2071     O2077   2.408       .  S
Zr2071     O2079   2.372       .  S
Zr2071     O2080   2.383       .  S
Zr2071     O2081   2.394       .  S
Zr2071     O2082   2.396       .  S
O2072      H2128   0.990       .  S
O2072      H2136   0.990       .  S
O2073      C3029   1.280   1_545  A
O2074      C2095   1.283       .  A
O2075     Zr2085   2.422       .  S
O2075      C2094   1.281       .  A
O2076     Zr2084   2.429       .  S
O2076      C2095   1.285       .  A
O2077      C2094   1.282       .  A
O2078     Zr3022   2.452       .  S
O2078      C2093   1.290       .  A
O2079     Zr2084   2.382       .  S
O2079     Zr2086   2.357       .  S
O2080     Zr2085   2.386       .  S
O2080     Zr2086   2.373       .  S
O2080      H2115   0.966       .  S
O2081     Zr2084   2.388       .  S
O2081     Zr2101   2.397       .  S
O2081      H2118   0.966       .  S
O2082     Zr2085   2.385       .  S
O2082     Zr2101   2.385       .  S
Zr2083     O2108   2.442       .  S
Zr2083     O2102   2.464       .  S
Zr2083     O2110   2.452       .  S
Zr2083     O2098   2.436       .  S
Zr2083     O2089   2.402       .  S
Zr2083     O2090   2.425       .  S
Zr2083     O2091   2.378       .  S
Zr2083     O2092   2.386       .  S
Zr2084     O2103   2.435       .  S
Zr2084     O2096   2.434       .  S
Zr2084     O2097   2.417       .  S
Zr2084     O2090   2.404       .  S
Zr2084     O2091   2.388       .  S
Zr2085     O2087   2.435       .  S
Zr2085     O2109   2.440       .  S
Zr2085     O2111   2.415       .  S
Zr2085     O2089   2.380       .  S
Zr2085     O2092   2.394       .  S
Zr2086     O2112   2.436   1_545  S
Zr2086     O2113   2.436   1_545  S
Zr2086     O3024   2.437   1_545  S
Zr2086     O3014   2.460   1_545  S
Zr2086     O2089   2.393       .  S
Zr2086     O2090   2.419       .  S
O2087      H2124   0.990       .  S
O2088     Zr3022   2.438       .  S
O2088      H2119   0.990       .  S
O2088      H2133   0.990       .  S
O2090      H2116   0.966       .  S
O2091     Zr2101   2.379       .  S
O2092     Zr2101   2.396       .  S
O2092      H2117   0.966       .  S
C2093      O3009   1.277       .  A
C2093      C2773   1.476       .  S
C2094      C2746   1.462       .  S
C2095      C2749   1.476   1_545  S
O2096      H2132   0.990       .  S
O2097      C2099   1.281       .  A
O2098      C2099   1.283       .  A
C2099      C2742   1.473       .  S
O2100     Zr2101   2.439       .  S
O2100      H2129   0.990       .  S
Zr2101     O2104   2.437       .  S
Zr2101     O2105   2.439       .  S
Zr2101     O2106   2.403       .  S
O2102      C2107   1.288       .  A
O2103      H2120   0.990       .  S
O2103      H2135   0.990       .  S
O2104      H2121   0.990       .  S
O2105      H2125   0.990       .  S
O2105      H2134   0.990       .  S
O2106      C2107   1.280       .  A
C2107      C2770   1.487       .  S
O2108      H2127   0.991       .  S
O2108      H2131   0.990       .  S
O2109      H2123   0.990       .  S
O2109      H2130   0.990       .  S
O2110      C2114   1.287       .  A
O2111      C2114   1.280       .  A
O2112      H3058   0.990   1_565  S
O2113      H2126   0.990   1_565  S
C2114      C2737   1.473       .  S
H2122      O3048   0.989       .  S
Zr2137     O2138   2.436       .  S
Zr2137     O2139   2.417       .  S
Zr2137     O2140   2.502       .  S
Zr2137     O2143   2.475       .  S
Zr2137     O2145   2.379       .  S
Zr2137     O2146   2.398       .  S
Zr2137     O2147   2.406       .  S
Zr2137     O2148   2.401       .  S
O2138      H2194   0.990       .  S
O2138      H2202   0.990       .  S
O2140      C2161   1.298       .  A
O2141     Zr2151   2.407       .  S
O2141      C2160   1.279       .  A
O2142     Zr2150   2.422       .  S
O2142      C2161   1.283       .  A
O2143      C2160   1.295       .  A
O2144      C2159   1.287       .  A
O2145     Zr2150   2.386       .  S
O2145     Zr2152   2.365       .  S
O2146     Zr2151   2.392       .  S
O2146     Zr2152   2.374       .  S
O2146      H2181   0.965       .  S
O2147     Zr2150   2.395       .  S
O2147     Zr2167   2.401       .  S
O2147      H2184   0.967       .  S
O2148     Zr2151   2.397       .  S
O2148     Zr2167   2.378       .  S
Zr2149     O2174   2.442       .  S
Zr2149     O2168   2.466       .  S
Zr2149     O2176   2.459       .  S
Zr2149     O2164   2.425       .  S
Zr2149     O2155   2.399       .  S
Zr2149     O2156   2.426       .  S
Zr2149     O2157   2.385       .  S
Zr2149     O2158   2.377       .  S
Zr2150     O2169   2.437       .  S
Zr2150     O2162   2.435       .  S
Zr2150     O2163   2.415       .  S
Zr2150     O2156   2.398       .  S
Zr2150     O2157   2.390       .  S
Zr2151     O2153   2.435       .  S
Zr2151     O2175   2.441       .  S
Zr2151     O2177   2.447       .  S
Zr2151     O2155   2.372       .  S
Zr2151     O2158   2.384       .  S
Zr2152     O2178   2.433       .  S
Zr2152     O2179   2.435       .  S
Zr2152     O2155   2.393       .  S
Zr2152     O2156   2.412       .  S
O2153      H2190   0.990       .  S
O2154      H2185   0.990       .  S
O2154      H2199   0.990       .  S
O2156      H2182   0.966       .  S
O2157     Zr2167   2.377       .  S
O2158     Zr2167   2.398       .  S
O2158      H2183   0.965       .  S
C2159      C2794   1.473       .  S
C2160      C2754   1.482       .  S
C2161      C2729   1.501       .  S
O2162      H2198   0.990       .  S
O2163      C2165   1.280       .  A
O2164      C2165   1.281       .  A
C2165      C2758   1.465       .  S
O2166     Zr2167   2.437       .  S
O2166      H2195   0.990       .  S
Zr2167     O2170   2.437       .  S
Zr2167     O2171   2.438       .  S
Zr2167     O2172   2.395       .  S
O2168      C2173   1.289       .  A
O2169      H2186   0.990       .  S
O2169      H2201   0.990       .  S
O2170      H2187   0.990       .  S
O2171      H2191   0.990       .  S
O2171      H2200   0.990       .  S
O2172      C2173   1.277       .  A
C2173      C2798   1.481       .  S
O2174      H2193   0.991       .  S
O2174      H2197   0.990       .  S
O2175      H2189   0.990       .  S
O2175      H2196   0.990       .  S
O2176      C2180   1.287       .  A
O2177      C2180   1.287       .  A
O2179      H2192   0.991       .  S
C2180      C2733   1.491       .  S
Zr2203     O2204   2.438       .  S
Zr2203     O2205   2.411       .  S
Zr2203     O2206   2.441       .  S
Zr2203     O2209   2.426       .  S
Zr2203     O2211   2.379       .  S
Zr2203     O2212   2.388       .  S
Zr2203     O2213   2.397       .  S
Zr2203     O2214   2.396       .  S
O2204      H2260   0.990       .  S
O2204      H2268   0.990       .  S
O2206      C2227   1.285       .  A
O2207     Zr2217   2.428   1_565  S
O2207      C2226   1.282       .  A
O2208     Zr2216   2.473       .  S
O2208      C2227   1.294       .  A
O2209      C2226   1.286   1_545  A
O2210      C2225   1.282       .  A
O2211     Zr2216   2.384       .  S
O2211     Zr2218   2.369       .  S
O2212     Zr2217   2.388       .  S
O2212     Zr2218   2.377       .  S
O2212      H2247   0.966       .  S
O2213     Zr2216   2.394       .  S
O2213     Zr2233   2.400       .  S
O2213      H2250   0.966       .  S
O2214     Zr2217   2.390       .  S
O2214     Zr2233   2.389       .  S
Zr2215     O2240   2.444       .  S
Zr2215     O2234   2.444       .  S
Zr2215     O2242   2.454       .  S
Zr2215     O2230   2.408       .  S
Zr2215     O2221   2.394       .  S
Zr2215     O2222   2.419       .  S
Zr2215     O2223   2.385       .  S
Zr2215     O2224   2.378       .  S
Zr2216     O2235   2.437       .  S
Zr2216     O2228   2.436       .  S
Zr2216     O2229   2.449       .  S
Zr2216     O2222   2.409       .  S
Zr2216     O2223   2.398       .  S
Zr2217     O2219   2.436       .  S
Zr2217     O2241   2.440       .  S
Zr2217     O2243   2.428       .  S
Zr2217     O2221   2.392       .  S
Zr2217     O2224   2.388       .  S
Zr2218     O2244   2.435       .  S
Zr2218     O2245   2.435       .  S
Zr2218     O2221   2.387       .  S
Zr2218     O2222   2.396       .  S
O2219      H2256   0.990   1_545  S
O2220      H2251   0.990       .  S
O2220      H2265   0.990       .  S
O2222      H2248   0.966       .  S
O2223     Zr2233   2.372       .  S
O2224     Zr2233   2.389       .  S
O2224      H2249   0.966       .  S
C2225      C2745   1.464       .  S
C2226      C3718   1.475       .  S
C2227      C2730   1.502       .  S
O2228      H2264   0.990       .  S
O2229      C2231   1.288       .  A
O2230      C2231   1.280       .  A
C2231      C2778   1.475       .  S
O2232     Zr2233   2.438       .  S
O2232      H2261   0.990       .  S
Zr2233     O2236   2.436       .  S
Zr2233     O2237   2.439       .  S
Zr2233     O2238   2.411       .  S
O2234      C2239   1.285       .  A
O2235      H2252   0.990       .  S
O2235      H2267   0.990       .  S
O2236      H2253   0.990       .  S
O2237      H2257   0.990       .  S
O2237      H2266   0.990   1_545  S
O2238      C2239   1.281       .  A
C2239      C2741   1.478       .  S
O2240      H2259   0.991       .  S
O2240      H2263   0.990       .  S
O2241      H2255   0.990       .  S
O2241      H2262   0.990       .  S
O2242      C2246   1.285       .  A
O2243      C2246   1.285       .  A
O2245      H2258   0.990       .  S
C2246      C2725   1.483       .  S
Zr2269     O2270   2.438       .  S
Zr2269     O2271   2.407       .  S
Zr2269     O2272   2.430       .  S
Zr2269     O2275   2.412       .  S
Zr2269     O2277   2.377       .  S
Zr2269     O2278   2.388       .  S
Zr2269     O2279   2.396       .  S
Zr2269     O2280   2.391       .  S
O2270      H2326   0.990       .  S
O2270      H2334   0.990       .  S
O2271      C2291   1.278       .  A
O2272      C2293   1.283       .  A
O2273     Zr2283   2.426       .  S
O2273      C2292   1.282       .  A
O2274     Zr2282   2.461       .  S
O2274      C2293   1.291       .  A
O2275      C2292   1.283       .  A
O2276     Zr2284   2.459       .  S
O2276      C2291   1.291       .  A
O2277     Zr2282   2.387       .  S
O2277     Zr2284   2.361       .  S
O2278     Zr2283   2.394       .  S
O2278     Zr2284   2.373       .  S
O2278      H2313   0.966       .  S
O2279     Zr2282   2.398       .  S
O2279     Zr2299   2.398       .  S
O2279      H2316   0.966       .  S
O2280     Zr2283   2.395       .  S
O2280     Zr2299   2.384       .  S
Zr2281     O2306   2.443       .  S
Zr2281     O2300   2.470       .  S
Zr2281     O2308   2.465       .  S
Zr2281     O2296   2.429       .  S
Zr2281     O2287   2.399       .  S
Zr2281     O2288   2.429       .  S
Zr2281     O2289   2.384       .  S
Zr2281     O2290   2.379       .  S
Zr2282     O2301   2.436       .  S
Zr2282     O2294   2.435       .  S
Zr2282     O2295   2.443       .  S
Zr2282     O2288   2.408       .  S
Zr2282     O2289   2.399       .  S
Zr2283     O2285   2.437       .  S
Zr2283     O2307   2.441       .  S
Zr2283     O2309   2.442       .  S
Zr2283     O2287   2.380       .  S
Zr2283     O2290   2.396       .  S
Zr2284     O2310   2.435       .  S
Zr2284     O2311   2.434       .  S
Zr2284     O2286   2.436       .  S
Zr2284     O2287   2.394       .  S
Zr2284     O2288   2.413       .  S
O2285      H2322   0.990       .  S
O2286      H2317   0.990       .  S
O2286      H2331   0.990       .  S
O2288      H2314   0.965       .  S
O2289     Zr2299   2.380       .  S
O2290     Zr2299   2.399       .  S
O2290      H2315   0.966       .  S
C2291      C2717   1.481       .  S
C2293      C2721   1.491       .  S
O2294      H2330   0.990       .  S
O2295      C2297   1.286       .  A
O2296      C2297   1.281       .  A
C2297      C2710   1.480       .  S
O2298     Zr2299   2.438       .  S
O2298      H2327   0.990       .  S
Zr2299     O2302   2.438       .  S
Zr2299     O2303   2.439       .  S
Zr2299     O2304   2.396       .  S
O2300      C2305   1.289       .  A
O2301      H2318   0.990       .  S
O2301      H2333   0.990       .  S
O2302      H2319   0.990       .  S
O2303      H2323   0.990       .  S
O2303      H2332   0.990       .  S
O2304      C2305   1.277       .  A
C2305      C2713   1.483       .  S
O2306      H2325   0.991       .  S
O2306      H2329   0.991       .  S
O2307      H2321   0.990       .  S
O2307      H2328   0.990       .  S
O2308      C2312   1.289       .  A
O2309      C2312   1.286       .  A
O2310      H2320   0.990       .  S
O2311      H2324   0.990       .  S
C2312      C2734   1.494       .  S
Zr2335     O2336   2.438       .  S
Zr2335     O2337   2.417       .  S
Zr2335     O2338   2.478       .  S
Zr2335     O2341   2.474       .  S
Zr2335     O2343   2.384       .  S
Zr2335     O2344   2.394       .  S
Zr2335     O2345   2.410       .  S
Zr2335     O2346   2.397       .  S
O2336      H2392   0.990       .  S
O2336      H2400   0.990       .  S
O2337      C2357   1.281       .  A
O2338      C2359   1.293       .  A
O2339     Zr2349   2.399       .  S
O2339      C2358   1.278   1_545  A
O2340     Zr2348   2.418       .  S
O2340      C2359   1.282       .  A
O2341      C2358   1.294   1_545  A
O2342     Zr2350   2.453       .  S
O2342      C2357   1.288       .  A
O2343     Zr2348   2.393       .  S
O2343     Zr2350   2.366       .  S
O2344     Zr2349   2.390       .  S
O2344     Zr2350   2.374       .  S
O2344      H2379   0.966       .  S
O2345     Zr2348   2.401       .  S
O2345     Zr2365   2.403       .  S
O2345      H2382   0.966       .  S
O2346     Zr2349   2.395       .  S
O2346     Zr2365   2.380       .  S
Zr2347     O2372   2.445       .  S
Zr2347     O2366   2.452       .  S
Zr2347     O2374   2.435       .  S
Zr2347     O2362   2.413       .  S
Zr2347     O2353   2.402       .  S
Zr2347     O2354   2.419       .  S
Zr2347     O2355   2.379       .  S
Zr2347     O2356   2.376       .  S
Zr2348     O2367   2.437       .  S
Zr2348     O2360   2.435       .  S
Zr2348     O2361   2.439       .  S
Zr2348     O2354   2.388       .  S
Zr2348     O2355   2.383       .  S
Zr2349     O2351   2.435       .  S
Zr2349     O2373   2.439       .  S
Zr2349     O2375   2.432       .  S
Zr2349     O2353   2.375       .  S
Zr2349     O2356   2.383       .  S
Zr2350     O2376   2.436       .  S
Zr2350     O2377   2.435       .  S
Zr2350     O2352   2.437       .  S
Zr2350     O2353   2.392       .  S
Zr2350     O2354   2.413       .  S
O2351      H2388   0.990       .  S
O2352      H2383   0.990       .  S
O2352      H2397   0.990       .  S
O2354      H2380   0.966       .  S
O2355     Zr2365   2.380       .  S
O2356     Zr2365   2.392       .  S
O2356      H2381   0.965       .  S
C2357      C2702   1.478       .  S
C2358      C3630   1.477       .  S
C2359      C2722   1.488       .  S
O2360      H2396   0.990       .  S
O2361      C2363   1.285       .  A
O2362      C2363   1.280       .  A
C2363      C2689   1.473       .  S
O2364     Zr2365   2.438       .  S
O2364      H2393   0.990       .  S
Zr2365     O2368   2.437       .  S
Zr2365     O2369   2.439       .  S
Zr2365     O2370   2.406       .  S
O2366      C2371   1.287       .  A
O2367      H2384   0.990       .  S
O2367      H2399   0.990       .  S
O2368      H2385   0.990       .  S
O2369      H2389   0.990       .  S
O2369      H2398   0.990       .  S
O2370      C2371   1.280       .  A
C2371      C2697   1.478       .  S
O2372      H2391   0.991       .  S
O2372      H2395   0.991       .  S
O2373      H2387   0.990       .  S
O2373      H2394   0.990       .  S
O2374      C2378   1.279       .  A
O2375      C2378   1.285       .  A
O2376      H2386   0.990       .  S
O2377      H2390   0.991       .  S
C2378      C2738   1.474       .  S
Zr2401     O2402   2.439       .  S
Zr2401     O2403   2.414       .  S
Zr2401     O2404   2.428       .  S
Zr2401     O2407   2.419       .  S
Zr2401     O2409   2.378       .  S
Zr2401     O2410   2.389       .  S
Zr2401     O2411   2.400       .  S
Zr2401     O2412   2.394       .  S
O2402      H2458   0.991       .  S
O2402      H2466   0.990       .  S
O2404      C2425   1.281       .  A
O2405     Zr2415   2.419       .  S
O2405      C2424   1.280       .  A
O2406     Zr2414   2.459       .  S
O2406      C2425   1.292       .  A
O2407      C2424   1.284       .  A
O2408      C2423   1.287       .  A
O2409     Zr2414   2.382       .  S
O2409     Zr2416   2.361       .  S
O2410     Zr2415   2.394       .  S
O2410     Zr2416   2.380       .  S
O2410      H2445   0.966       .  S
O2411     Zr2414   2.400       .  S
O2411     Zr2431   2.400       .  S
O2411      H2448   0.966       .  S
O2412     Zr2415   2.391       .  S
O2412     Zr2431   2.383       .  S
Zr2413     O2438   2.441       .  S
Zr2413     O2432   2.452       .  S
Zr2413     O2440   2.460       .  S
Zr2413     O2428   2.418       .  S
Zr2413     O2419   2.391       .  S
Zr2413     O2420   2.419       .  S
Zr2413     O2421   2.385       .  S
Zr2413     O2422   2.387       .  S
Zr2414     O2433   2.435       .  S
Zr2414     O2426   2.434       .  S
Zr2414     O2427   2.446       .  S
Zr2414     O2420   2.398       .  S
Zr2414     O2421   2.393       .  S
Zr2415     O2417   2.437       .  S
Zr2415     O2439   2.439       .  S
Zr2415     O2441   2.429       .  S
Zr2415     O2419   2.381       .  S
Zr2415     O2422   2.391       .  S
Zr2416     O2442   2.435       .  S
Zr2416     O2443   2.435       .  S
Zr2416     O2419   2.382       .  S
Zr2416     O2420   2.404       .  S
O2417      H2454   0.990       .  S
O2418      H2449   0.990       .  S
O2418      H2463   0.990       .  S
O2420      H2446   0.966       .  S
O2421     Zr2431   2.373       .  S
O2422     Zr2431   2.397       .  S
O2422      H2447   0.966       .  S
C2423      C2681   1.473       .  S
C2424      C3654   1.467       .  S
C2425      C2678   1.488       .  S
O2426      H2462   0.989       .  S
O2427      C2429   1.288       .  A
O2428      C2429   1.281       .  A
C2429      C2714   1.480       .  S
O2430     Zr2431   2.440       .  S
O2430      H2459   0.990       .  S
Zr2431     O2434   2.437       .  S
Zr2431     O2435   2.441       .  S
Zr2431     O2436   2.395       .  S
O2432      C2437   1.286       .  A
O2433      H2450   0.990       .  S
O2433      H2465   0.990       .  S
O2434      H2451   0.990       .  S
O2435      H2455   0.990       .  S
O2435      H2464   0.990       .  S
O2436      C2437   1.278       .  A
C2437      C2686   1.480       .  S
O2438      H2457   0.990       .  S
O2438      H2461   0.990       .  S
O2439      H2453   0.990       .  S
O2439      H2460   0.990       .  S
O2440      C2444   1.287       .  A
O2441      C2444   1.283       .  A
O2443      H2456   0.990       .  S
C2444      C2762   1.479       .  S
Zr2467     O2468   2.437       .  S
Zr2467     O2469   2.391   1_655  S
Zr2467     O2470   2.478       .  S
Zr2467     O2473   2.450       .  S
Zr2467     O2475   2.376       .  S
Zr2467     O2476   2.397       .  S
Zr2467     O2477   2.398       .  S
Zr2467     O2478   2.398       .  S
O2468      H2524   0.991       .  S
O2468      H2532   0.990       .  S
O2470      C2491   1.293       .  A
O2471     Zr2481   2.411       .  S
O2471      C2490   1.281       .  A
O2472     Zr2480   2.417       .  S
O2472      C2491   1.281       .  A
O2473      C2490   1.290       .  A
O2474      C2489   1.289       .  A
O2475     Zr2480   2.383       .  S
O2475     Zr2482   2.364       .  S
O2476     Zr2481   2.394       .  S
O2476     Zr2482   2.369       .  S
O2476      H2511   0.965       .  S
O2477     Zr2480   2.399       .  S
O2477     Zr2497   2.400       .  S
O2477      H2514   0.966       .  S
O2478     Zr2481   2.402       .  S
O2478     Zr2497   2.375       .  S
Zr2479     O2504   2.446       .  S
Zr2479     O2498   2.451       .  S
Zr2479     O2506   2.431       .  S
Zr2479     O2494   2.420       .  S
Zr2479     O2485   2.403       .  S
Zr2479     O2486   2.417       .  S
Zr2479     O2487   2.376       .  S
Zr2479     O2488   2.378       .  S
Zr2480     O2499   2.434       .  S
Zr2480     O2492   2.433       .  S
Zr2480     O2493   2.428       .  S
Zr2480     O2486   2.390       .  S
Zr2480     O2487   2.379       .  S
Zr2481     O2483   2.438       .  S
Zr2481     O2505   2.440       .  S
Zr2481     O2507   2.455       .  S
Zr2481     O2485   2.375       .  S
Zr2481     O2488   2.385       .  S
Zr2482     O2508   2.437   1_655  S
Zr2482     O2509   2.435   1_655  S
Zr2482     O2485   2.400       .  S
Zr2482     O2486   2.415       .  S
O2483      H2520   0.990       .  S
O2484      H2515   0.990       .  S
O2484      H2529   0.990       .  S
O2486      H2512   0.966       .  S
O2487     Zr2497   2.375       .  S
O2488     Zr2497   2.390       .  S
O2488      H2513   0.966       .  S
C2489      C2693   1.475       .  S
C2490      C2669   1.471       .  S
C2491      C2677   1.491   1_655  S
O2492      H2528   0.990   1_655  S
O2493      C2495   1.284       .  A
O2494      C2495   1.281       .  A
C2495      C2673   1.470       .  S
O2496     Zr2497   2.438       .  S
O2496      H2525   0.990       .  S
Zr2497     O2500   2.436       .  S
Zr2497     O2501   2.440       .  S
Zr2497     O2502   2.402       .  S
O2498      C2503   1.287       .  A
O2499      H2516   0.990       .  S
O2499      H2531   0.990       .  S
O2500      H2517   0.990       .  S
O2501      H2521   0.990       .  S
O2501      H2530   0.990       .  S
O2502      C2503   1.280       .  A
C2503      C2690   1.479       .  S
O2504      H2523   0.990       .  S
O2504      H2527   0.990       .  S
O2505      H2519   0.990       .  S
O2505      H2526   0.990       .  S
O2506      C2510   1.282       .  A
O2507      C2510   1.289       .  A
O2509      H2522   0.990   1_455  S
C2510      C2766   1.486       .  S
Zr2533     O2534   2.437       .  S
Zr2533     O2535   2.415       .  S
Zr2533     O2536   2.459       .  S
Zr2533     O2539   2.440       .  S
Zr2533     O2541   2.377       .  S
Zr2533     O2542   2.390       .  S
Zr2533     O2543   2.402       .  S
Zr2533     O2544   2.401       .  S
O2534      H2590   0.990       .  S
O2534      H2598   0.990       .  S
O2535      C3491   1.280       .  A
O2536      C2557   1.290       .  A
O2537     Zr2547   2.406       .  S
O2537      C2556   1.279       .  A
O2538     Zr2546   2.416       .  S
O2538      C2557   1.281       .  A
O2539      C2556   1.288       .  A
O2540     Zr3484   2.461   1_545  S
O2540      C2555   1.291       .  A
O2541     Zr2546   2.386       .  S
O2541     Zr2548   2.362       .  S
O2542     Zr2547   2.395       .  S
O2542     Zr2548   2.373       .  S
O2542      H2577   0.966       .  S
O2543     Zr2546   2.394       .  S
O2543     Zr2563   2.398       .  S
O2543      H2580   0.967       .  S
O2544     Zr2547   2.394       .  S
O2544     Zr2563   2.383       .  S
Zr2545     O2570   2.442       .  S
Zr2545     O2564   2.460       .  S
Zr2545     O2572   2.453       .  S
Zr2545     O2560   2.427       .  S
Zr2545     O2551   2.396       .  S
Zr2545     O2552   2.424       .  S
Zr2545     O2553   2.380       .  S
Zr2545     O2554   2.384       .  S
Zr2546     O2565   2.437       .  S
Zr2546     O2558   2.435       .  S
Zr2546     O2559   2.418       .  S
Zr2546     O2552   2.393       .  S
Zr2546     O2553   2.383       .  S
Zr2547     O2549   2.438       .  S
Zr2547     O2571   2.439       .  S
Zr2547     O2573   2.434       .  S
Zr2547     O2551   2.372       .  S
Zr2547     O2554   2.387       .  S
Zr2548     O2574   2.434       .  S
Zr2548     O2575   2.435       .  S
Zr2548     O3486   2.437       .  S
Zr2548     O3476   2.464       .  S
Zr2548     O2551   2.393       .  S
Zr2548     O2552   2.420       .  S
O2549      H2586   0.990       .  S
O2550     Zr3484   2.438   1_545  S
O2550      H2581   0.990       .  S
O2550      H2595   0.990       .  S
O2552      H2578   0.966       .  S
O2553     Zr2563   2.376       .  S
O2554     Zr2563   2.397       .  S
O2554      H2579   0.966       .  S
C2555      O3471   1.278   1_545  A
C2555      C2705   1.482       .  S
C2556      C2682   1.465       .  S
C2557      C2665   1.480       .  S
O2558      H2594   0.990       .  S
O2559      C2561   1.281       .  A
O2560      C2561   1.280       .  A
C2561      C2685   1.468       .  S
O2562     Zr2563   2.439       .  S
O2562      H2591   0.990       .  S
Zr2563     O2566   2.438       .  S
Zr2563     O2567   2.438       .  S
Zr2563     O2568   2.405       .  S
O2564      C2569   1.289       .  A
O2565      H2582   0.990       .  S
O2565      H2597   0.990       .  S
O2566      H2583   0.990       .  S
O2567      H2587   0.990       .  S
O2567      H2596   0.990       .  S
O2568      C2569   1.279       .  A
C2569      C2709   1.482       .  S
O2570      H2589   0.991       .  S
O2570      H2593   0.990       .  S
O2571      H2585   0.990       .  S
O2571      H2592   0.990       .  S
O2572      C2576   1.287       .  A
O2573      C2576   1.284       .  A
O2574      H3520   0.990       .  S
O2575      H2588   0.990       .  S
C2576      C2786   1.483       .  S
H2584      O3510   0.990       .  S
Zr2599     O2600   2.439       .  S
Zr2599     O2601   2.409       .  S
Zr2599     O2602   2.416       .  S
Zr2599     O2605   2.407       .  S
Zr2599     O2607   2.376       .  S
Zr2599     O2608   2.385       .  S
Zr2599     O2609   2.393       .  S
Zr2599     O2610   2.389       .  S
O2600      H2656   0.990       .  S
O2600      H2664   0.990       .  S
O2601      C3557   1.278   1_545  A
O2602      C2623   1.280       .  A
O2603     Zr2613   2.421       .  S
O2603      C2622   1.281   1_655  A
O2604     Zr2612   2.442       .  S
O2604      C2623   1.289       .  A
O2605      C2622   1.282   1_655  A
O2606     Zr3550   2.440       .  S
O2606      C2621   1.287       .  A
O2607     Zr2612   2.382       .  S
O2607     Zr2614   2.358       .  S
O2608     Zr2613   2.388       .  S
O2608     Zr2614   2.375       .  S
O2608      H2643   0.966       .  S
O2609     Zr2612   2.395       .  S
O2609     Zr2629   2.393       .  S
O2609      H2646   0.966       .  S
O2610     Zr2613   2.384       .  S
O2610     Zr2629   2.380       .  S
Zr2611     O2636   2.442       .  S
Zr2611     O2630   2.456       .  S
Zr2611     O2638   2.457       .  S
Zr2611     O2626   2.427       .  S
Zr2611     O2617   2.397       .  S
Zr2611     O2618   2.424       .  S
Zr2611     O2619   2.380       .  S
Zr2611     O2620   2.385       .  S
Zr2612     O2631   2.435       .  S
Zr2612     O2624   2.433       .  S
Zr2612     O2625   2.434       .  S
Zr2612     O2618   2.403       .  S
Zr2612     O2619   2.390       .  S
Zr2613     O2615   2.434       .  S
Zr2613     O2637   2.440       .  S
Zr2613     O2639   2.422       .  S
Zr2613     O2617   2.381       .  S
Zr2613     O2620   2.393       .  S
Zr2614     O2640   2.433   1_545  S
Zr2614     O2641   2.436   1_545  S
Zr2614     O3552   2.438   1_545  S
Zr2614     O3542   2.452   1_545  S
Zr2614     O2617   2.392       .  S
Zr2614     O2618   2.413       .  S
O2615      H2652   0.990       .  S
O2616     Zr3550   2.435       .  S
O2616      H2647   0.990       .  S
O2616      H2661   0.990       .  S
O2618      H2644   0.966       .  S
O2619     Zr2629   2.375       .  S
O2620     Zr2629   2.397       .  S
O2620      H2645   0.966       .  S
C2621      O3537   1.278       .  A
C2621      C2670   1.474       .  S
C2623      C2666   1.475       .  S
O2624      H2660   0.990       .  S
O2625      C2627   1.285       .  A
O2626      C2627   1.282       .  A
C2627      C2698   1.477       .  S
O2628     Zr2629   2.440       .  S
O2628      H2657   0.990       .  S
Zr2629     O2632   2.436       .  S
Zr2629     O2633   2.440       .  S
Zr2629     O2634   2.390       .  S
O2630      C2635   1.286       .  A
O2631      H2648   0.990       .  S
O2631      H2663   0.990       .  S
O2632      H2649   0.990       .  S
O2633      H2653   0.990       .  S
O2633      H2662   0.990   1_655  S
O2634      C2635   1.277       .  A
C2635      C2674   1.478       .  S
O2636      H2655   0.990       .  S
O2636      H2659   0.990       .  S
O2637      H2651   0.990       .  S
O2637      H2658   0.990       .  S
O2638      C2642   1.287       .  A
O2639      C2642   1.282       .  A
O2640      H3586   0.990   1_565  S
O2641      H2654   0.990   1_565  S
C2642      C2726   1.479       .  S
H2650      O3576   0.990       .  S
C2665      H2667   1.087   1_554  S
C2665      C3602   1.343   1_554  D
C2666      H2668   1.087   1_556  S
C2666      C3601   1.339   1_556  D
C2669      H2671   1.087       .  S
C2669      C2670   1.339       .  D
C2670      H2672   1.087       .  S
C2673      H2675   1.087       .  S
C2673      C2674   1.350       .  D
C2674      H2676   1.086       .  S
C2677      H2679   1.087       .  S
C2678      H2680   1.087   1_554  S
C2681      H2683   1.087       .  S
C2681      C2682   1.337       .  D
C2682      H2684   1.087       .  S
C2685      H2687   1.087       .  S
C2685      C2686   1.350       .  D
C2686      H2688   1.086       .  S
C2689      H2691   1.087       .  S
C2689      C2690   1.351       .  D
C2690      H2692   1.087       .  S
C2693      H2695   1.087       .  S
C2693      C2694   1.341       .  D
C2694      C3294   1.479       .  S
C2694      H2696   1.087       .  S
C2697      H2699   1.087       .  S
C2697      C2698   1.350       .  D
C2698      H2700   1.087       .  S
C2701      H2703   1.087       .  S
C2701      C2702   1.344       .  D
C2702      H2704   1.087       .  S
C2705      H2707   1.087       .  S
C2705      C2706   1.339       .  D
C2706      H2708   1.087       .  S
C2709      H2711   1.086       .  S
C2709      C2710   1.353       .  D
C2710      H2712   1.087       .  S
C2713      H2715   1.086       .  S
C2713      C2714   1.354       .  D
C2714      H2716   1.087       .  S
C2717      H2719   1.087       .  S
C2717      C2718   1.338       .  D
C2718      C3360   1.477       .  S
C2718      H2720   1.087       .  S
C2721      H2723   1.087   1_554  S
C2721      C2722   1.345   1_554  D
C2722      H2724   1.087       .  S
C2725      H2727   1.086       .  S
C2725      C2726   1.346       .  D
C2726      H2728   1.088       .  S
C2729      H2731   1.087       .  S
C2730      H2732   1.086       .  S
C2733      H2735   1.087       .  S
C2733      C2734   1.352       .  D
C2734      H2736   1.086       .  S
C2737      H2739   1.088       .  S
C2737      C2738   1.342       .  D
C2738      H2740   1.086       .  S
C2741      H2743   1.087       .  S
C2741      C2742   1.347       .  D
C2742      H2744   1.087       .  S
C2745      H2747   1.087       .  S
C2745      C2746   1.341       .  D
C2746      H2748   1.087       .  S
C2749      H2751   1.087       .  S
C2749      C3686   1.345       .  D
C2750      H2752   1.087       .  S
C2750      C3685   1.346       .  D
C2753      H2755   1.087       .  S
C2753      C2754   1.338       .  D
C2754      H2756   1.087       .  S
C2757      H2759   1.087       .  S
C2757      C2758   1.346       .  D
C2758      H2760   1.087       .  S
C2761      H2763   1.086       .  S
C2761      C2762   1.345       .  D
C2762      H2764   1.088       .  S
C2765      H2767   1.088       .  S
C2765      C2766   1.342       .  D
C2766      H2768   1.086       .  S
C2769      H2771   1.087       .  S
C2769      C2770   1.351       .  D
C2770      H2772   1.086       .  S
C2773      H2775   1.087       .  S
C2773      C2774   1.337       .  D
C2774      H2776   1.088       .  S
C2777      H2779   1.086       .  S
C2777      C2778   1.354       .  D
C2778      H2780   1.087       .  S
C2781      H2783   1.087       .  S
C2781      C2782   1.340       .  D
C2782      C3162   1.474       .  S
C2782      H2784   1.088       .  S
C2785      H2787   1.086       .  S
C2785      C2786   1.348       .  D
C2786      H2788   1.088       .  S
C2789      H2791   1.087       .  S
C2789      C2790   1.346       .  D
C2790      H2792   1.087       .  S
C2793      C2832   1.474   1_545  S
C2793      H2795   1.087       .  S
C2793      C2794   1.341       .  D
C2794      H2796   1.087       .  S
C2797      H2799   1.087       .  S
C2797      C2798   1.354       .  D
C2798      H2800   1.086       .  S
C2801      H2803   1.087       .  S
C2801      C2802   1.342       .  D
C2802      H2804   1.087       .  S
C2805      H2807   1.087       .  S
C2805      C2806   1.350       .  D
C2806      H2808   1.087       .  S
Zr2809     O2810   2.441       .  S
Zr2809     O2811   2.436       .  S
Zr2809     O2812   2.440       .  S
Zr2809     O2815   2.437       .  S
Zr2809     O2817   2.381       .  S
Zr2809     O2818   2.382       .  S
Zr2809     O2819   2.411       .  S
Zr2809     O2820   2.393       .  S
O2810      H2866   0.990       .  S
O2810      H2874   0.990       .  S
O2811      C2831   1.286       .  A
O2812      C2833   1.284       .  A
O2813     Zr2823   2.419       .  S
O2813      C2832   1.281       .  A
O2814     Zr2822   2.453       .  S
O2814      C2833   1.290       .  A
O2815      C2832   1.287       .  A
O2816     Zr2824   2.416       .  S
O2816      C2831   1.279       .  A
O2817     Zr2822   2.393       .  S
O2817     Zr2824   2.372       .  S
O2818     Zr2823   2.388       .  S
O2818     Zr2824   2.387       .  S
O2818      H2853   0.966       .  S
O2819     Zr2822   2.402       .  S
O2819     Zr2839   2.405       .  S
O2819      H2856   0.966       .  S
O2820     Zr2823   2.385       .  S
O2820     Zr2839   2.387       .  S
Zr2821     O2846   2.448       .  S
Zr2821     O2840   2.439       .  S
Zr2821     O2848   2.442       .  S
Zr2821     O2836   2.404       .  S
Zr2821     O2827   2.386       .  S
Zr2821     O2828   2.412       .  S
Zr2821     O2829   2.382       .  S
Zr2821     O2830   2.378       .  S
Zr2822     O2841   2.435       .  S
Zr2822     O2834   2.436       .  S
Zr2822     O2835   2.461       .  S
Zr2822     O2828   2.396       .  S
Zr2822     O2829   2.388       .  S
Zr2823     O2825   2.438       .  S
Zr2823     O2847   2.439       .  S
Zr2823     O2849   2.416       .  S
Zr2823     O2827   2.379       .  S
Zr2823     O2830   2.385       .  S
Zr2824     O2850   2.436       .  S
Zr2824     O2851   2.434       .  S
Zr2824     O2826   2.437       .  S
Zr2824     O2827   2.380       .  S
Zr2824     O2828   2.400       .  S
O2825      H2862   0.990       .  S
O2826      H2857   0.990       .  S
O2826      H2871   0.990       .  S
O2828      H2854   0.966       .  S
O2829     Zr2839   2.366       .  S
O2830     Zr2839   2.386       .  S
O2830      H2855   0.965       .  S
C2831      C3737   1.472       .  S
C2833      C3725   1.493       .  S
O2834      H2870   0.990       .  S
O2835      C2837   1.291       .  A
O2836      C2837   1.280       .  A
C2837      C3733   1.479       .  S
O2838     Zr2839   2.438       .  S
O2838      H2867   0.990       .  S
Zr2839     O2842   2.437       .  S
Zr2839     O2843   2.438       .  S
Zr2839     O2844   2.431       .  S
O2840      C2845   1.285       .  A
O2841      H2858   0.990       .  S
O2841      H2873   0.990       .  S
O2842      H2859   0.990       .  S
O2843      H2863   0.990       .  S
O2843      H2872   0.990       .  S
O2844      C2845   1.285       .  A
C2845      C3741   1.483       .  S
O2846      H2865   0.990       .  S
O2846      H2869   0.990       .  S
O2847      H2861   0.990       .  S
O2847      H2868   0.990       .  S
O2848      C2852   1.284       .  A
O2849      C2852   1.283       .  A
O2850      H2860   0.990       .  S
O2851      H2864   0.990       .  S
C2852      C3721   1.471       .  S
Zr2875     O2876   2.436       .  S
Zr2875     O2877   2.407       .  S
Zr2875     O2878   2.479       .  S
Zr2875     O2881   2.463       .  S
Zr2875     O2883   2.386       .  S
Zr2875     O2884   2.396       .  S
Zr2875     O2885   2.406       .  S
Zr2875     O2886   2.401       .  S
O2876      H2932   0.990       .  S
O2876      H2940   0.990       .  S
O2877      C2897   1.279       .  A
O2878      C2899   1.294       .  A
O2879     Zr2889   2.412       .  S
O2879      C2898   1.279       .  A
O2880     Zr2888   2.412       .  S
O2880      C2899   1.281       .  A
O2881      C2898   1.292       .  A
O2882     Zr2890   2.446       .  S
O2882      C2897   1.287       .  A
O2883     Zr2888   2.389       .  S
O2883     Zr2890   2.365       .  S
O2884     Zr2889   2.393       .  S
O2884     Zr2890   2.377       .  S
O2884      H2919   0.966       .  S
O2885     Zr2888   2.400       .  S
O2885     Zr2905   2.393       .  S
O2885      H2922   0.966       .  S
O2886     Zr2889   2.398       .  S
O2886     Zr2905   2.386       .  S
Zr2887     O2912   2.445       .  S
Zr2887     O2906   2.442       .  S
Zr2887     O2914   2.431       .  S
Zr2887     O2902   2.417       .  S
Zr2887     O2893   2.400       .  S
Zr2887     O2894   2.416       .  S
Zr2887     O2895   2.377       .  S
Zr2887     O2896   2.382       .  S
Zr2888     O2907   2.436       .  S
Zr2888     O2900   2.435       .  S
Zr2888     O2901   2.437       .  S
Zr2888     O2894   2.385       .  S
Zr2888     O2895   2.375       .  S
Zr2889     O2891   2.436       .  S
Zr2889     O2913   2.440       .  S
Zr2889     O2915   2.445       .  S
Zr2889     O2893   2.375       .  S
Zr2889     O2896   2.380       .  S
Zr2890     O2916   2.435       .  S
Zr2890     O2917   2.437       .  S
Zr2890     O2892   2.437       .  S
Zr2890     O2893   2.394       .  S
Zr2890     O2894   2.411       .  S
O2891      H2928   0.990   1_655  S
O2892      H2923   0.990       .  S
O2892      H2937   0.990       .  S
O2894      H2920   0.966       .  S
O2895     Zr2905   2.371       .  S
O2896     Zr2905   2.391       .  S
O2896      H2921   0.966       .  S
C2897      C3717   1.473       .  S
C2899      C3726   1.486       .  S
O2900      H2936   0.990       .  S
O2901      C2903   1.286       .  A
O2902      C2903   1.281       .  A
C2903      C3705   1.471       .  S
O2904     Zr2905   2.439       .  S
O2904      H2933   0.990       .  S
Zr2905     O2908   2.437       .  S
Zr2905     O2909   2.438       .  S
Zr2905     O2910   2.404       .  S
O2906      C2911   1.285       .  A
O2907      H2924   0.990       .  S
O2907      H2939   0.990       .  S
O2908      H2925   0.990       .  S
O2909      H2929   0.990       .  S
O2909      H2938   0.990       .  S
O2910      C2911   1.280       .  A
C2911      C3713   1.474       .  S
O2912      H2931   0.990       .  S
O2912      H2935   0.990       .  S
O2913      H2927   0.990       .  S
O2913      H2934   0.990       .  S
O2914      C2918   1.282       .  A
O2915      C2918   1.287       .  A
O2916      H2926   0.990       .  S
O2917      H2930   0.990       .  S
C2918      C3701   1.480       .  S
Zr2941     O2942   2.438       .  S
Zr2941     O2943   2.405       .  S
Zr2941     O2944   2.435       .  S
Zr2941     O2947   2.408       .  S
Zr2941     O2949   2.372       .  S
Zr2941     O2950   2.391       .  S
Zr2941     O2951   2.393       .  S
Zr2941     O2952   2.399       .  S
O2942      H2998   0.991       .  S
O2942      H3006   0.990       .  S
O2944      C2965   1.285       .  A
O2945     Zr2955   2.445       .  S
O2945      C2964   1.288       .  A
O2946     Zr2954   2.424       .  S
O2946      C2965   1.282       .  A
O2947      C2964   1.280       .  A
O2948      C2963   1.286       .  A
O2949     Zr2954   2.388       .  S
O2949     Zr2956   2.359       .  S
O2950     Zr2955   2.390       .  S
O2950     Zr2956   2.369       .  S
O2950      H2985   0.966       .  S
O2951     Zr2954   2.398       .  S
O2951     Zr2971   2.398       .  S
O2951      H2988   0.966       .  S
O2952     Zr2955   2.397       .  S
O2952     Zr2971   2.384       .  S
Zr2953     O2978   2.443       .  S
Zr2953     O2972   2.473       .  S
Zr2953     O2980   2.437       .  S
Zr2953     O2968   2.441       .  S
Zr2953     O2959   2.412       .  S
Zr2953     O2960   2.426       .  S
Zr2953     O2961   2.374       .  S
Zr2953     O2962   2.381       .  S
Zr2954     O2973   2.437       .  S
Zr2954     O2966   2.434       .  S
Zr2954     O2967   2.426       .  S
Zr2954     O2960   2.400       .  S
Zr2954     O2961   2.393       .  S
Zr2955     O2957   2.435       .  S
Zr2955     O2979   2.438       .  S
Zr2955     O2981   2.457       .  S
Zr2955     O2959   2.381       .  S
Zr2955     O2962   2.398       .  S
Zr2956     O2982   2.435       .  S
Zr2956     O2983   2.435       .  S
Zr2956     O2959   2.401       .  S
Zr2956     O2960   2.425       .  S
O2957      H2994   0.990       .  S
O2958      H2989   0.990       .  S
O2958      H3003   0.990       .  S
O2960      H2986   0.966       .  S
O2961     Zr2971   2.381       .  S
O2962     Zr2971   2.397       .  S
O2962      H2987   0.966       .  S
C2963      C3689   1.466       .  S
C2965      C3686   1.474       .  S
O2966      H3002   0.990       .  S
O2967      C2969   1.282       .  A
O2968      C2969   1.284       .  A
C2969      C3742   1.479       .  S
O2970     Zr2971   2.436       .  S
O2970      H2999   0.990       .  S
Zr2971     O2974   2.435       .  S
Zr2971     O2975   2.439       .  S
Zr2971     O2976   2.400       .  S
O2972      C2977   1.290       .  A
O2973      H2990   0.990       .  S
O2973      H3005   0.990       .  S
O2974      H2991   0.990       .  S
O2975      H2995   0.990       .  S
O2975      H3004   0.990       .  S
O2976      C2977   1.277       .  A
C2977      C3693   1.488       .  S
O2978      H2997   0.990       .  S
O2978      H3001   0.991       .  S
O2979      H2993   0.990       .  S
O2979      H3000   0.990       .  S
O2980      C2984   1.283       .  A
O2981      C2984   1.289       .  A
O2983      H2996   0.990       .  S
C2984      C3697   1.486       .  S
Zr3007     O3008   2.437       .  S
Zr3007     O3009   2.402       .  S
Zr3007     O3010   2.470       .  S
Zr3007     O3013   2.470       .  S
Zr3007     O3015   2.381       .  S
Zr3007     O3016   2.395       .  S
Zr3007     O3017   2.407       .  S
Zr3007     O3018   2.393       .  S
O3008      H3064   0.990       .  S
O3008      H3072   0.990       .  S
O3010      C3031   1.292       .  A
O3011     Zr3021   2.411       .  S
O3011      C3030   1.281       .  A
O3012     Zr3020   2.424       .  S
O3012      C3031   1.283       .  A
O3013      C3030   1.294       .  A
O3014      C3029   1.291       .  A
O3015     Zr3020   2.383       .  S
O3015     Zr3022   2.352       .  S
O3016     Zr3021   2.395       .  S
O3016     Zr3022   2.375       .  S
O3016      H3051   0.965       .  S
O3017     Zr3020   2.399       .  S
O3017     Zr3037   2.398       .  S
O3017      H3054   0.966       .  S
O3018     Zr3021   2.396       .  S
O3018     Zr3037   2.373       .  S
Zr3019     O3044   2.441       .  S
Zr3019     O3038   2.462       .  S
Zr3019     O3046   2.454       .  S
Zr3019     O3034   2.416       .  S
Zr3019     O3025   2.399       .  S
Zr3019     O3026   2.424       .  S
Zr3019     O3027   2.385       .  S
Zr3019     O3028   2.378       .  S
Zr3020     O3039   2.436       .  S
Zr3020     O3032   2.434       .  S
Zr3020     O3033   2.437       .  S
Zr3020     O3026   2.398       .  S
Zr3020     O3027   2.380       .  S
Zr3021     O3023   2.436       .  S
Zr3021     O3045   2.438       .  S
Zr3021     O3047   2.444       .  S
Zr3021     O3025   2.376       .  S
Zr3021     O3028   2.385       .  S
Zr3022     O3048   2.434       .  S
Zr3022     O3049   2.435       .  S
Zr3022     O3025   2.396       .  S
Zr3022     O3026   2.415       .  S
O3023      H3060   0.990       .  S
O3024      H3055   0.990       .  S
O3024      H3069   0.990       .  S
O3026      H3052   0.966       .  S
O3027     Zr3037   2.376       .  S
O3028     Zr3037   2.398       .  S
O3028      H3053   0.966       .  S
C3029      C3709   1.484       .  S
C3030      C3682   1.480       .  S
C3031      C3685   1.486       .  S
O3032      H3068   0.990       .  S
O3033      C3035   1.285       .  A
O3034      C3035   1.279       .  A
C3035      C3678   1.471       .  S
O3036     Zr3037   2.439       .  S
O3036      H3065   0.990       .  S
Zr3037     O3040   2.437       .  S
Zr3037     O3041   2.438       .  S
Zr3037     O3042   2.387       .  S
O3038      C3043   1.289       .  A
O3039      H3056   0.990       .  S
O3039      H3071   0.990       .  S
O3040      H3057   0.990       .  S
O3041      H3061   0.990       .  S
O3041      H3070   0.990       .  S
O3042      C3043   1.277       .  A
C3043      C3706   1.481       .  S
O3044      H3063   0.990       .  S
O3044      H3067   0.990       .  S
O3045      H3059   0.990       .  S
O3045      H3066   0.990       .  S
O3046      C3050   1.287       .  A
O3047      C3050   1.286       .  A
O3049      H3062   0.990       .  S
C3050      C3673   1.491       .  S
Zr3073     O3074   2.440       .  S
Zr3073     O3075   2.408       .  S
Zr3073     O3076   2.428       .  S
Zr3073     O3079   2.427       .  S
Zr3073     O3081   2.380       .  S
Zr3073     O3082   2.382       .  S
Zr3073     O3083   2.396       .  S
Zr3073     O3084   2.391       .  S
O3074      H3130   0.990       .  S
O3074      H3138   0.990       .  S
O3076      C3097   1.282       .  A
O3077     Zr3087   2.407       .  S
O3077      C3096   1.278       .  A
O3078     Zr3086   2.471       .  S
O3078      C3097   1.294       .  A
O3079      C3096   1.286       .  A
O3080      C3095   1.286       .  A
O3081     Zr3086   2.382       .  S
O3081     Zr3088   2.359       .  S
O3082     Zr3087   2.389       .  S
O3082     Zr3088   2.380       .  S
O3082      H3117   0.966       .  S
O3083     Zr3086   2.396       .  S
O3083     Zr3103   2.393       .  S
O3083      H3120   0.966       .  S
O3084     Zr3087   2.389       .  S
O3084     Zr3103   2.384       .  S
Zr3085     O3110   2.440       .  S
Zr3085     O3104   2.464       .  S
Zr3085     O3112   2.488       .  S
Zr3085     O3100   2.430       .  S
Zr3085     O3091   2.389       .  S
Zr3085     O3092   2.431       .  S
Zr3085     O3093   2.389       .  S
Zr3085     O3094   2.383       .  S
Zr3086     O3105   2.434       .  S
Zr3086     O3098   2.434       .  S
Zr3086     O3099   2.452       .  S
Zr3086     O3092   2.409       .  S
Zr3086     O3093   2.396       .  S
Zr3087     O3089   2.435       .  S
Zr3087     O3111   2.440       .  S
Zr3087     O3113   2.414       .  S
Zr3087     O3091   2.378       .  S
Zr3087     O3094   2.389       .  S
Zr3088     O3114   2.435       .  S
Zr3088     O3115   2.436       .  S
Zr3088     O3091   2.388       .  S
Zr3088     O3092   2.412       .  S
O3089      H3126   0.990       .  S
O3090      H3121   0.990       .  S
O3090      H3135   0.990       .  S
O3092      H3118   0.966       .  S
O3093     Zr3103   2.378       .  S
O3094     Zr3103   2.403       .  S
O3094      H3119   0.966       .  S
C3095      C3730   1.476       .  S
C3096      C3690   1.466       .  S
C3097      C3665   1.493       .  S
O3098      H3134   0.990       .  S
O3099      C3101   1.289       .  A
O3100      C3101   1.283       .  A
C3101      C3694   1.485       .  S
O3102     Zr3103   2.437       .  S
O3102      H3131   0.990       .  S
Zr3103     O3106   2.436       .  S
Zr3103     O3107   2.439       .  S
Zr3103     O3108   2.397       .  S
O3104      C3109   1.289       .  A
O3105      H3122   0.990       .  S
O3105      H3137   0.990       .  S
O3106      H3123   0.990       .  S
O3107      H3127   0.990       .  S
O3107      H3136   0.990       .  S
O3108      C3109   1.277       .  A
C3109      C3734   1.479       .  S
O3110      H3129   0.990       .  S
O3110      H3133   0.990       .  S
O3111      H3125   0.990       .  S
O3111      H3132   0.990       .  S
O3112      C3116   1.293       .  A
O3113      C3116   1.280       .  A
O3115      H3128   0.990       .  S
C3116      C3669   1.488       .  S
Zr3139     O3140   2.436       .  S
Zr3139     O3141   2.404       .  S
Zr3139     O3142   2.481       .  S
Zr3139     O3145   2.460       .  S
Zr3139     O3147   2.377       .  S
Zr3139     O3148   2.398       .  S
Zr3139     O3149   2.400       .  S
Zr3139     O3150   2.398       .  S
O3140      H3196   0.990       .  S
O3140      H3204   0.990       .  S
O3142      C3163   1.295       .  A
O3143     Zr3153   2.408       .  S
O3143      C3162   1.281       .  A
O3144     Zr3152   2.404       .  S
O3144      C3163   1.279       .  A
O3145      C3162   1.292       .  A
O3146      C3161   1.292       .  A
O3147     Zr3152   2.388       .  S
O3147     Zr3154   2.361       .  S
O3148     Zr3153   2.396       .  S
O3148     Zr3154   2.367       .  S
O3148      H3183   0.966       .  S
O3149     Zr3152   2.401       .  S
O3149     Zr3169   2.396       .  S
O3149      H3186   0.967       .  S
O3150     Zr3153   2.402       .  S
O3150     Zr3169   2.376       .  S
Zr3151     O3176   2.446       .  S
Zr3151     O3170   2.453       .  S
Zr3151     O3178   2.422       .  S
Zr3151     O3166   2.414       .  S
Zr3151     O3157   2.403       .  S
Zr3151     O3158   2.415       .  S
Zr3151     O3159   2.373       .  S
Zr3151     O3160   2.380       .  S
Zr3152     O3171   2.435       .  S
Zr3152     O3164   2.435       .  S
Zr3152     O3165   2.428       .  S
Zr3152     O3158   2.387       .  S
Zr3152     O3159   2.375       .  S
Zr3153     O3155   2.435       .  S
Zr3153     O3177   2.440       .  S
Zr3153     O3179   2.461       .  S
Zr3153     O3157   2.369       .  S
Zr3153     O3160   2.381       .  S
Zr3154     O3180   2.436       .  S
Zr3154     O3181   2.435       .  S
Zr3154     O3157   2.397       .  S
Zr3154     O3158   2.419       .  S
O3155      H3192   0.990       .  S
O3156      H3187   0.990       .  S
O3156      H3201   0.990       .  S
O3158      H3184   0.966       .  S
O3159     Zr3169   2.373       .  S
O3160     Zr3169   2.392       .  S
O3160      H3185   0.966       .  S
C3161      C3681   1.481       .  S
C3163      C3666   1.485       .  S
O3164      H3200   0.990       .  S
O3165      C3167   1.283       .  A
O3166      C3167   1.281       .  A
C3167      C3714   1.469       .  S
O3168     Zr3169   2.441       .  S
O3168      H3197   0.990       .  S
Zr3169     O3172   2.436       .  S
Zr3169     O3173   2.439       .  S
Zr3169     O3174   2.393       .  S
O3170      C3175   1.288       .  A
O3171      H3188   0.990       .  S
O3171      H3203   0.990       .  S
O3172      H3189   0.990       .  S
O3173      H3193   0.990       .  S
O3173      H3202   0.990       .  S
O3174      C3175   1.278       .  A
C3175      C3677   1.478       .  S
O3176      H3195   0.990       .  S
O3176      H3199   0.990       .  S
O3177      H3191   0.990       .  S
O3177      H3198   0.990       .  S
O3178      C3182   1.280       .  A
O3179      C3182   1.290       .  A
O3181      H3194   0.990       .  S
C3182      C3661   1.482       .  S
Zr3205     O3206   2.437       .  S
Zr3205     O3207   2.411       .  S
Zr3205     O3208   2.495       .  S
Zr3205     O3211   2.468       .  S
Zr3205     O3213   2.375       .  S
Zr3205     O3214   2.402       .  S
Zr3205     O3215   2.410       .  S
Zr3205     O3216   2.402       .  S
O3206      H3262   0.990       .  S
O3206      H3270   0.990       .  S
O3207      C3227   1.280       .  A
O3208      C3229   1.296       .  A
O3209     Zr3219   2.413       .  S
O3209      C3228   1.281       .  A
O3210     Zr3218   2.455       .  S
O3210      C3229   1.290       .  A
O3211      C3228   1.294       .  A
O3212     Zr3220   2.433       .  S
O3212      C3227   1.286       .  A
O3213     Zr3218   2.383       .  S
O3213     Zr3220   2.362       .  S
O3214     Zr3219   2.392       .  S
O3214     Zr3220   2.377       .  S
O3214      H3249   0.966       .  S
O3215     Zr3218   2.399       .  S
O3215     Zr3235   2.410       .  S
O3215      H3252   0.966       .  S
O3216     Zr3219   2.400       .  S
O3216     Zr3235   2.380       .  S
Zr3217     O3242   2.442       .  S
Zr3217     O3236   2.440       .  S
Zr3217     O3244   2.437       .  S
Zr3217     O3232   2.397       .  S
Zr3217     O3223   2.395       .  S
Zr3217     O3224   2.415       .  S
Zr3217     O3225   2.381       .  S
Zr3217     O3226   2.373       .  S
Zr3218     O3237   2.435       .  S
Zr3218     O3230   2.435       .  S
Zr3218     O3231   2.449       .  S
Zr3218     O3224   2.398       .  S
Zr3218     O3225   2.382       .  S
Zr3219     O3221   2.436       .  S
Zr3219     O3243   2.439       .  S
Zr3219     O3245   2.454       .  S
Zr3219     O3223   2.380       .  S
Zr3219     O3226   2.378       .  S
Zr3220     O3246   2.435       .  S
Zr3220     O3247   2.437       .  S
Zr3220     O3222   2.440       .  S
Zr3220     O3223   2.400       .  S
Zr3220     O3224   2.406       .  S
O3221      H3258   0.990       .  S
O3222      H3253   0.990       .  S
O3222      H3267   0.990       .  S
O3224      H3250   0.966       .  S
O3225     Zr3235   2.366       .  S
O3226     Zr3235   2.388       .  S
O3226      H3251   0.966       .  S
C3227      C3653   1.468       .  S
C3229      C3657   1.511       .  S
O3230      H3266   0.990       .  S
O3231      C3233   1.288       .  A
O3232      C3233   1.278       .  A
C3233      C3646   1.469       .  S
O3234     Zr3235   2.440       .  S
O3234      H3263   0.990       .  S
Zr3235     O3238   2.438       .  S
Zr3235     O3239   2.439       .  S
Zr3235     O3240   2.417       .  S
O3236      C3241   1.284       .  A
O3237      H3254   0.990       .  S
O3237      H3269   0.990       .  S
O3238      H3255   0.990       .  S
O3239      H3259   0.990       .  S
O3239      H3268   0.990       .  S
O3240      C3241   1.283       .  A
C3241      C3649   1.482       .  S
O3242      H3261   0.990       .  S
O3242      H3265   0.990       .  S
O3243      H3257   0.990       .  S
O3243      H3264   0.990       .  S
O3244      C3248   1.283       .  A
O3245      C3248   1.290       .  A
O3246      H3256   0.990       .  S
O3247      H3260   0.990       .  S
C3248      C3670   1.490       .  S
Zr3271     O3272   2.438       .  S
Zr3271     O3273   2.399       .  S
Zr3271     O3274   2.467       .  S
Zr3271     O3277   2.447       .  S
Zr3271     O3279   2.379       .  S
Zr3271     O3280   2.394       .  S
Zr3271     O3281   2.399       .  S
Zr3271     O3282   2.396       .  S
O3272      H3328   0.990       .  S
O3272      H3336   0.990       .  S
O3273      C3293   1.277       .  A
O3274      C3295   1.291       .  A
O3275     Zr3285   2.423       .  S
O3275      C3294   1.282       .  A
O3276     Zr3284   2.476       .  S
O3276      C3295   1.293       .  A
O3277      C3294   1.290       .  A
O3278     Zr3286   2.424       .  S
O3278      C3293   1.284       .  A
O3279     Zr3284   2.377       .  S
O3279     Zr3286   2.363       .  S
O3280     Zr3285   2.394       .  S
O3280     Zr3286   2.383       .  S
O3280      H3315   0.966       .  S
O3281     Zr3284   2.397       .  S
O3281     Zr3301   2.404       .  S
O3281      H3318   0.966       .  S
O3282     Zr3285   2.394       .  S
O3282     Zr3301   2.385       .  S
Zr3283     O3308   2.445       .  S
Zr3283     O3302   2.452       .  S
Zr3283     O3310   2.468       .  S
Zr3283     O3298   2.420       .  S
Zr3283     O3289   2.386       .  S
Zr3283     O3290   2.426       .  S
Zr3283     O3291   2.390       .  S
Zr3283     O3292   2.382       .  S
Zr3284     O3303   2.435       .  S
Zr3284     O3296   2.433       .  S
Zr3284     O3297   2.440       .  S
Zr3284     O3290   2.410       .  S
Zr3284     O3291   2.403       .  S
Zr3285     O3287   2.437       .  S
Zr3285     O3309   2.438       .  S
Zr3285     O3311   2.440       .  S
Zr3285     O3289   2.380       .  S
Zr3285     O3292   2.391       .  S
Zr3286     O3312   2.435       .  S
Zr3286     O3313   2.436       .  S
Zr3286     O3288   2.436       .  S
Zr3286     O3289   2.380       .  S
Zr3286     O3290   2.400       .  S
O3287      H3324   0.990       .  S
O3288      H3319   0.990       .  S
O3288      H3333   0.990       .  S
O3290      H3316   0.966       .  S
O3291     Zr3301   2.377       .  S
O3292     Zr3301   2.397       .  S
O3292      H3317   0.966       .  S
C3293      C3638   1.463       .  S
C3295      C3658   1.513       .  S
O3296      H3332   0.990       .  S
O3297      C3299   1.286       .  A
O3298      C3299   1.280       .  A
C3299      C3625   1.474       .  S
O3300     Zr3301   2.439       .  S
O3300      H3329   0.990       .  S
Zr3301     O3304   2.436       .  S
Zr3301     O3305   2.441       .  S
Zr3301     O3306   2.403       .  S
O3302      C3307   1.286       .  A
O3303      H3320   0.990       .  S
O3303      H3335   0.990       .  S
O3304      H3321   0.990       .  S
O3305      H3325   0.990       .  S
O3305      H3334   0.990       .  S
O3306      C3307   1.279       .  A
C3307      C3633   1.478       .  S
O3308      H3327   0.991       .  S
O3308      H3331   0.990       .  S
O3309      H3323   0.990       .  S
O3309      H3330   0.990       .  S
O3310      C3314   1.290       .  A
O3311      C3314   1.286       .  A
O3312      H3322   0.990       .  S
O3313      H3326   0.990       .  S
C3314      C3674   1.491       .  S
Zr3337     O3338   2.437       .  S
Zr3337     O3339   2.412       .  S
Zr3337     O3340   2.484       .  S
Zr3337     O3343   2.467       .  S
Zr3337     O3345   2.377       .  S
Zr3337     O3346   2.392       .  S
Zr3337     O3347   2.400       .  S
Zr3337     O3348   2.399       .  S
O3338      H3394   0.990       .  S
O3338      H3402   0.990       .  S
O3340      C3361   1.296       .  A
O3341     Zr3351   2.409       .  S
O3341      C3360   1.280   1_565  A
O3342     Zr3350   2.383       .  S
O3342      C3361   1.274       .  A
O3343      C3360   1.294   1_565  A
O3344      C3359   1.290       .  A
O3345     Zr3350   2.386       .  S
O3345     Zr3352   2.358       .  S
O3346     Zr3351   2.390       .  S
O3346     Zr3352   2.370       .  S
O3346      H3381   0.965       .  S
O3347     Zr3350   2.395       .  S
O3347     Zr3367   2.391       .  S
O3347      H3384   0.966       .  S
O3348     Zr3351   2.393       .  S
O3348     Zr3367   2.374       .  S
Zr3349     O3374   2.442       .  S
Zr3349     O3368   2.473       .  S
Zr3349     O3376   2.461       .  S
Zr3349     O3364   2.452       .  S
Zr3349     O3355   2.405       .  S
Zr3349     O3356   2.424       .  S
Zr3349     O3357   2.381       .  S
Zr3349     O3358   2.385       .  S
Zr3350     O3369   2.435       .  S
Zr3350     O3362   2.434       .  S
Zr3350     O3363   2.402       .  S
Zr3350     O3356   2.392       .  S
Zr3350     O3357   2.379       .  S
Zr3351     O3353   2.436       .  S
Zr3351     O3375   2.439       .  S
Zr3351     O3377   2.431       .  S
Zr3351     O3355   2.376       .  S
Zr3351     O3358   2.389       .  S
Zr3352     O3378   2.435       .  S
Zr3352     O3379   2.434       .  S
Zr3352     O3355   2.395       .  S
Zr3352     O3356   2.422       .  S
O3353      H3390   0.990       .  S
O3354      H3385   0.991       .  S
O3354      H3399   0.990       .  S
O3356      H3382   0.966       .  S
O3357     Zr3367   2.379       .  S
O3358     Zr3367   2.396       .  S
O3358      H3383   0.966       .  S
C3359      C3617   1.480       .  S
C3361      C3614   1.476       .  S
O3362      H3398   0.989       .  S
O3363      C3365   1.278       .  A
O3364      C3365   1.285       .  A
C3365      C3650   1.472       .  S
O3366     Zr3367   2.439       .  S
O3366      H3395   0.990       .  S
Zr3367     O3370   2.439       .  S
Zr3367     O3371   2.440       .  S
Zr3367     O3372   2.378       .  S
O3368      C3373   1.290       .  A
O3369      H3386   0.990       .  S
O3369      H3401   0.990       .  S
O3370      H3387   0.990       .  S
O3371      H3391   0.990       .  S
O3371      H3400   0.990   1_565  S
O3372      C3373   1.275       .  A
C3373      C3622   1.483       .  S
O3374      H3393   0.991       .  S
O3374      H3397   0.990       .  S
O3375      H3389   0.990       .  S
O3375      H3396   0.990       .  S
O3376      C3380   1.290       .  A
O3377      C3380   1.283       .  A
O3379      H3392   0.990       .  S
C3380      C3698   1.487       .  S
Zr3403     O3404   2.438       .  S
Zr3403     O3405   2.403       .  S
Zr3403     O3406   2.469       .  S
Zr3403     O3409   2.459       .  S
Zr3403     O3411   2.380       .  S
Zr3403     O3412   2.394       .  S
Zr3403     O3413   2.400       .  S
Zr3403     O3414   2.396       .  S
O3404      H3460   0.990       .  S
O3404      H3468   0.990       .  S
O3406      C3427   1.292       .  A
O3407     Zr3417   2.405       .  S
O3407      C3426   1.279       .  A
O3408     Zr3416   2.431       .  S
O3408      C3427   1.284       .  A
O3409      C3426   1.291       .  A
O3410      C3425   1.289       .  A
O3411     Zr3416   2.382       .  S
O3411     Zr3418   2.363       .  S
O3412     Zr3417   2.392       .  S
O3412     Zr3418   2.377       .  S
O3412      H3447   0.966       .  S
O3413     Zr3416   2.397       .  S
O3413     Zr3433   2.396       .  S
O3413      H3450   0.966       .  S
O3414     Zr3417   2.392       .  S
O3414     Zr3433   2.376       .  S
Zr3415     O3440   2.441       .  S
Zr3415     O3434   2.458       .  S
Zr3415     O3442   2.458       .  S
Zr3415     O3430   2.442       .  S
Zr3415     O3421   2.395       .  S
Zr3415     O3422   2.420       .  S
Zr3415     O3423   2.382       .  S
Zr3415     O3424   2.385       .  S
Zr3416     O3435   2.437       .  S
Zr3416     O3428   2.436       .  S
Zr3416     O3429   2.427       .  S
Zr3416     O3422   2.398       .  S
Zr3416     O3423   2.389       .  S
Zr3417     O3419   2.436       .  S
Zr3417     O3441   2.441       .  S
Zr3417     O3443   2.428       .  S
Zr3417     O3421   2.374       .  S
Zr3417     O3424   2.388       .  S
Zr3418     O3444   2.435   1_655  S
Zr3418     O3445   2.435   1_655  S
Zr3418     O3421   2.384       .  S
Zr3418     O3422   2.412       .  S
O3419      H3456   0.990       .  S
O3420      H3451   0.990       .  S
O3420      H3465   0.990       .  S
O3422      H3448   0.966       .  S
O3423     Zr3433   2.380       .  S
O3424     Zr3433   2.395       .  S
O3424      H3449   0.966       .  S
C3425      C3629   1.483       .  S
C3426      C3605   1.473       .  S
C3427      C3613   1.490   1_655  S
O3428      H3464   0.990   1_655  S
O3429      C3431   1.284       .  A
O3430      C3431   1.284       .  A
C3431      C3609   1.477       .  S
O3432     Zr3433   2.438       .  S
O3432      H3461   0.990       .  S
Zr3433     O3436   2.436       .  S
Zr3433     O3437   2.439       .  S
Zr3433     O3438   2.392       .  S
O3434      C3439   1.287       .  A
O3435      H3452   0.990       .  S
O3435      H3467   0.990       .  S
O3436      H3453   0.990       .  S
O3437      H3457   0.990       .  S
O3437      H3466   0.990       .  S
O3438      C3439   1.277       .  A
C3439      C3626   1.477       .  S
O3440      H3459   0.990       .  S
O3440      H3463   0.990       .  S
O3441      H3455   0.990       .  S
O3441      H3462   0.990       .  S
O3442      C3446   1.288       .  A
O3443      C3446   1.283       .  A
O3445      H3458   0.991   1_455  S
C3446      C3702   1.480       .  S
Zr3469     O3470   2.436       .  S
Zr3469     O3471   2.407       .  S
Zr3469     O3472   2.447       .  S
Zr3469     O3475   2.458       .  S
Zr3469     O3477   2.385       .  S
Zr3469     O3478   2.385       .  S
Zr3469     O3479   2.404       .  S
Zr3469     O3480   2.391       .  S
O3470      H3526   0.990       .  S
O3470      H3534   0.990       .  S
O3472      C3493   1.289       .  A
O3473     Zr3483   2.401       .  S
O3473      C3492   1.278       .  A
O3474     Zr3482   2.412       .  S
O3474      C3493   1.281       .  A
O3475      C3492   1.291       .  A
O3476      C3491   1.291       .  A
O3477     Zr3482   2.389       .  S
O3477     Zr3484   2.355       .  S
O3478     Zr3483   2.391       .  S
O3478     Zr3484   2.370       .  S
O3478      H3513   0.966       .  S
O3479     Zr3482   2.406       .  S
O3479     Zr3499   2.386       .  S
O3479      H3516   0.966       .  S
O3480     Zr3483   2.390       .  S
O3480     Zr3499   2.378       .  S
Zr3481     O3506   2.442       .  S
Zr3481     O3500   2.457       .  S
Zr3481     O3508   2.423       .  S
Zr3481     O3496   2.416       .  S
Zr3481     O3487   2.401       .  S
Zr3481     O3488   2.418       .  S
Zr3481     O3489   2.375       .  S
Zr3481     O3490   2.379       .  S
Zr3482     O3501   2.437       .  S
Zr3482     O3494   2.437   1_565  S
Zr3482     O3495   2.434       .  S
Zr3482     O3488   2.386       .  S
Zr3482     O3489   2.378       .  S
Zr3483     O3485   2.436       .  S
Zr3483     O3507   2.440       .  S
Zr3483     O3509   2.424       .  S
Zr3483     O3487   2.377       .  S
Zr3483     O3490   2.381       .  S
Zr3484     O3510   2.434       .  S
Zr3484     O3511   2.435   1_565  S
Zr3484     O3487   2.399       .  S
Zr3484     O3488   2.420       .  S
O3485      H3522   0.990       .  S
O3486      H3517   0.990       .  S
O3486      H3531   0.990       .  S
O3488      H3514   0.966       .  S
O3489     Zr3499   2.374       .  S
O3490     Zr3499   2.392       .  S
O3490      H3515   0.966       .  S
C3491      C3641   1.485       .  S
C3492      C3618   1.472       .  S
C3493      C3601   1.472   1_565  S
O3494      H3530   0.990       .  S
O3495      C3497   1.285       .  A
O3496      C3497   1.278       .  A
C3497      C3621   1.470       .  S
O3498     Zr3499   2.435       .  S
O3498      H3527   0.990       .  S
Zr3499     O3502   2.435       .  S
Zr3499     O3503   2.438       .  S
Zr3499     O3504   2.385       .  S
O3500      C3505   1.288       .  A
O3501      H3518   0.990       .  S
O3501      H3533   0.990       .  S
O3502      H3519   0.990       .  S
O3503      H3523   0.990       .  S
O3503      H3532   0.990       .  S
O3504      C3505   1.276       .  A
C3505      C3645   1.476       .  S
O3506      H3525   0.990       .  S
O3506      H3529   0.991       .  S
O3507      H3521   0.990       .  S
O3507      H3528   0.990       .  S
O3508      C3512   1.282       .  A
O3509      C3512   1.283       .  A
O3511      H3524   0.990   1_545  S
C3512      C3722   1.470       .  S
Zr3535     O3536   2.439       .  S
Zr3535     O3537   2.408       .  S
Zr3535     O3538   2.427       .  S
Zr3535     O3541   2.414       .  S
Zr3535     O3543   2.378       .  S
Zr3535     O3544   2.385       .  S
Zr3535     O3545   2.397       .  S
Zr3535     O3546   2.394       .  S
O3536      H3592   0.990       .  S
O3536      H3600   0.990       .  S
O3538      C3559   1.283       .  A
O3539     Zr3549   2.417   1_455  S
O3539      C3558   1.280       .  A
O3540     Zr3548   2.446       .  S
O3540      C3559   1.289       .  A
O3541      C3558   1.283   1_655  A
O3542      C3557   1.290       .  A
O3543     Zr3548   2.381       .  S
O3543     Zr3550   2.360       .  S
O3544     Zr3549   2.392       .  S
O3544     Zr3550   2.378       .  S
O3544      H3579   0.966       .  S
O3545     Zr3548   2.396       .  S
O3545     Zr3565   2.396       .  S
O3545      H3582   0.966       .  S
O3546     Zr3549   2.391       .  S
O3546     Zr3565   2.385       .  S
Zr3547     O3572   2.442       .  S
Zr3547     O3566   2.467       .  S
Zr3547     O3574   2.465       .  S
Zr3547     O3562   2.430       .  S
Zr3547     O3553   2.390       .  S
Zr3547     O3554   2.427       .  S
Zr3547     O3555   2.384       .  S
Zr3547     O3556   2.386       .  S
Zr3548     O3567   2.435       .  S
Zr3548     O3560   2.436       .  S
Zr3548     O3561   2.424       .  S
Zr3548     O3554   2.404       .  S
Zr3548     O3555   2.394       .  S
Zr3549     O3551   2.436       .  S
Zr3549     O3573   2.440       .  S
Zr3549     O3575   2.432       .  S
Zr3549     O3553   2.373       .  S
Zr3549     O3556   2.391       .  S
Zr3550     O3576   2.436       .  S
Zr3550     O3577   2.434       .  S
Zr3550     O3553   2.382       .  S
Zr3550     O3554   2.414       .  S
O3551      H3588   0.990   1_655  S
O3552      H3583   0.990       .  S
O3552      H3597   0.990       .  S
O3554      H3580   0.966       .  S
O3555     Zr3565   2.375       .  S
O3556     Zr3565   2.398       .  S
O3556      H3581   0.966       .  S
C3557      C3606   1.479       .  S
C3559      C3602   1.484       .  S
O3560      H3596   0.990       .  S
O3561      C3563   1.283       .  A
O3562      C3563   1.282       .  A
C3563      C3634   1.473       .  S
O3564     Zr3565   2.435       .  S
O3564      H3593   0.990       .  S
Zr3565     O3568   2.436       .  S
Zr3565     O3569   2.436       .  S
Zr3565     O3570   2.398       .  S
O3566      C3571   1.288       .  A
O3567      H3584   0.990       .  S
O3567      H3599   0.990       .  S
O3568      H3585   0.990       .  S
O3569      H3589   0.990       .  S
O3569      H3598   0.990       .  S
O3570      C3571   1.278       .  A
C3571      C3610   1.486       .  S
O3572      H3591   0.991       .  S
O3572      H3595   0.990       .  S
O3573      H3587   0.990   1_655  S
O3573      H3594   0.990       .  S
O3574      C3578   1.290       .  A
O3575      C3578   1.284       .  A
O3577      H3590   0.990       .  S
C3578      C3662   1.483       .  S
C3601      H3603   1.087       .  S
C3602      H3604   1.087       .  S
C3605      H3607   1.088       .  S
C3605      C3606   1.338       .  D
C3606      H3608   1.087       .  S
C3609      H3611   1.087       .  S
C3609      C3610   1.352       .  D
C3610      H3612   1.086       .  S
C3613      H3615   1.087   1_556  S
C3614      H3616   1.087   1_554  S
C3617      H3619   1.087       .  S
C3617      C3618   1.338       .  D
C3618      H3620   1.087       .  S
C3621      H3623   1.087       .  S
C3621      C3622   1.355       .  D
C3622      H3624   1.086       .  S
C3625      H3627   1.087       .  S
C3625      C3626   1.352       .  D
C3626      H3628   1.086       .  S
C3629      H3631   1.087       .  S
C3629      C3630   1.338       .  D
C3630      H3632   1.088       .  S
C3633      H3635   1.087       .  S
C3633      C3634   1.350       .  D
C3634      H3636   1.087       .  S
C3637      H3639   1.087       .  S
C3637      C3638   1.338       .  D
C3638      H3640   1.087       .  S
C3641      H3643   1.087       .  S
C3641      C3642   1.341       .  D
C3642      H3644   1.087       .  S
C3645      H3647   1.086       .  S
C3645      C3646   1.353       .  D
C3646      H3648   1.087       .  S
C3649      H3651   1.086       .  S
C3649      C3650   1.345       .  D
C3650      H3652   1.087       .  S
C3653      H3655   1.087       .  S
C3653      C3654   1.340       .  D
C3654      H3656   1.087       .  S
C3657      H3659   1.087   1_554  S
C3657      C3658   1.358   1_554  D
C3658      H3660   1.086       .  S
C3661      H3663   1.086       .  S
C3661      C3662   1.344       .  D
C3662      H3664   1.088       .  S
C3665      H3667   1.087       .  S
C3666      H3668   1.087       .  S
C3669      H3671   1.088       .  S
C3669      C3670   1.345       .  D
C3670      H3672   1.086       .  S
C3673      H3675   1.087       .  S
C3673      C3674   1.352       .  D
C3674      H3676   1.086       .  S
C3677      H3679   1.086       .  S
C3677      C3678   1.352       .  D
C3678      H3680   1.087       .  S
C3681      H3683   1.087       .  S
C3681      C3682   1.339       .  D
C3682      H3684   1.088       .  S
C3685      H3687   1.087       .  S
C3686      H3688   1.087       .  S
C3689      H3691   1.087       .  S
C3689      C3690   1.336       .  D
C3690      H3692   1.087       .  S
C3693      H3695   1.086       .  S
C3693      C3694   1.356       .  D
C3694      H3696   1.087       .  S
C3697      H3699   1.087       .  S
C3697      C3698   1.346       .  D
C3698      H3700   1.087       .  S
C3701      H3703   1.086       .  S
C3701      C3702   1.346       .  D
C3702      H3704   1.088       .  S
C3705      H3707   1.087       .  S
C3705      C3706   1.353       .  D
C3706      H3708   1.086       .  S
C3709      H3711   1.087       .  S
C3709      C3710   1.340       .  D
C3710      H3712   1.087       .  S
C3713      H3715   1.086       .  S
C3713      C3714   1.348       .  D
C3714      H3716   1.087       .  S
C3717      H3719   1.087       .  S
C3717      C3718   1.341       .  D
C3718      H3720   1.087       .  S
C3721      H3723   1.086       .  S
C3721      C3722   1.345       .  D
C3722      H3724   1.088       .  S
C3725      H3727   1.087       .  S
C3725      C3726   1.344       .  D
C3726      H3728   1.087       .  S
C3729      H3731   1.087       .  S
C3729      C3730   1.343       .  D
C3730      H3732   1.087       .  S
C3733      H3735   1.086       .  S
C3733      C3734   1.355       .  D
C3734      H3736   1.086       .  S
C3737      H3739   1.087       .  S
C3737      C3738   1.340       .  D
C3738      H3740   1.087       .  S
C3741      H3743   1.087       .  S
C3741      C3742   1.348       .  D
C3742      H3744   1.087       .  S
