geometry optimzed in LAMMPS
_audit_creation_date              2020-12-01 
_audit_creation_method            'lammps2cif' 
_symmetry_space_group_name_H-M    'P1' 
_symmetry_Int_Tables_number       1 
_symmetry_cell_setting            triclinic 
loop_ 
_symmetry_equiv_pos_as_xyz 
  x,y,z 
_cell_length_a                    49.1483653 
_cell_length_b                    49.444218962652094 
_cell_length_c                    65.27002469721258 
_cell_angle_alpha                 89.76471362449294 
_cell_angle_beta                  89.99883083998854 
_cell_angle_gamma                 119.35475516207221 
loop_ 
_atom_site_label 
_atom_site_type_symbol 
_atom_site_fract_x 
_atom_site_fract_y 
_atom_site_fract_z 
_atom_site_charge 
O1          O  0.45256148  0.59777471  0.54068245    -0.80500
C2          C  0.51367646  0.64015390  0.61638917     0.98800
O3          O  0.48826438  0.63881632  0.61124517    -0.69700
O4          O  0.48266519  0.66747527  0.57956668    -0.73200
Al5        Al  0.46242378  0.62495775  0.58766743     1.49000
C6          C  0.48435016  0.67614372  0.56128925     0.94100
O7          O  0.53763813  0.65565880  0.55409007    -0.79500
O8          O  0.48967961  0.56388274  0.56535116    -0.73000
Al9        Al  0.49507399  0.62636238  0.54737976     1.90100
O10         O  0.54476031  0.62044327  0.57030516    -0.72100
O11         O  0.47292281  0.56991762  0.60265905    -0.71900
O12         O  0.52493911  0.62615481  0.60641064    -0.77600
O13         O  0.43801837  0.58459026  0.59834626    -0.75800
O14         O  0.48768252  0.61577920  0.57370830    -1.11900
O15         O  0.43222162  0.61209170  0.56600752    -0.71100
C16         C  0.42922574  0.59705005  0.54964123     0.99600
C17         C  0.55523712  0.64805292  0.56389421     0.96000
Al18       Al  0.50647149  0.59651657  0.58520985     1.55600
O19         O  0.48611945  0.65969130  0.54734941    -0.75800
C20         C  0.44612158  0.56628225  0.60599551     1.00100
C21         C  0.49569672  0.56840734  0.54644719     0.95000
O22         O  0.50543821  0.59525321  0.53914439    -0.81100
O23         O  0.86936061  0.80644888  0.64471246    -0.80500
C24         C  0.80341161  0.79683573  0.57181929     0.98800
O25         O  0.82850756  0.82002136  0.57749574    -0.69700
O26         O  0.83535964  0.85001868  0.61117399    -0.73200
Al27       Al  0.85558971  0.82884051  0.60019439     1.49000
C28         C  0.83611019  0.85602644  0.62988459     0.94100
O29         O  0.78316077  0.78273121  0.63589262    -0.79500
O30         O  0.82815234  0.73777798  0.61824122    -0.73000
Al31       Al  0.82625400  0.79443208  0.64024199     1.90100
O32         O  0.77410104  0.74308324  0.61588213    -0.72100
O33         O  0.84571571  0.76488674  0.58229998    -0.71900
O34         O  0.79324813  0.77090433  0.58053026    -0.77600
O35         O  0.87948526  0.81385535  0.58688364    -0.75800
O36         O  0.83146310  0.79351962  0.61329351    -1.11900
O37         O  0.88736164  0.84353397  0.62097936    -0.71100
C38         C  0.89190805  0.82956857  0.63585192     0.99600
C39         C  0.76448067  0.75896219  0.62564722     0.96000
Al40       Al  0.81201081  0.75718603  0.60034133     1.55600
O41         O  0.83580884  0.83689478  0.64274583    -0.75800
C42         C  0.87218543  0.78807761  0.57894874     1.00100
C43         C  0.82262287  0.73419994  0.63718083     0.95000
O44         O  0.81572234  0.75238962  0.64635946    -0.81100
O45         O  0.80522187  0.53094502  0.71308770    -0.80500
C46         C  0.81503413  0.49035649  0.79191401     0.98800
O47         O  0.82187370  0.51809815  0.78777826    -0.69700
O48         O  0.85913092  0.53602910  0.75682267    -0.73200
Al49       Al  0.82242422  0.53708318  0.76161931     1.49000
C50         C  0.86936734  0.53002146  0.74090081     0.94100
O51         O  0.80910691  0.45880743  0.72829308    -0.79500
O52         O  0.73895336  0.47120183  0.74441085    -0.73000
Al53       Al  0.80673221  0.49561729  0.72267912     1.90100
O54         O  0.76802108  0.43698492  0.74779749    -0.72100
O55         O  0.75916625  0.49527102  0.78010483    -0.71900
O56         O  0.79596586  0.46819467  0.78091581    -0.77600
O57         O  0.78767123  0.54249809  0.76847221    -0.75800
O58         O  0.79929851  0.50125947  0.74866599    -1.11900
O59         O  0.82845003  0.56323969  0.73824159    -0.71100
C60         C  0.81775579  0.55799493  0.72021113     0.99600
C61         C  0.78726993  0.43467452  0.73626915     0.96000
Al62       Al  0.76822922  0.47053787  0.76218224     1.55600
O63         O  0.85206961  0.51806961  0.72537545    -0.75800
C64         C  0.76481474  0.52294658  0.77881856     1.00100
C65         C  0.73807882  0.46675121  0.72538250     0.95000
O66         O  0.76243657  0.47184052  0.71541783    -0.81100
O67         O  0.15645086  0.71147831  0.79431976    -0.80500
C68         C  0.15542251  0.65922766  0.71761842     0.98800
O69         O  0.14599174  0.67878230  0.72041526    -0.69700
O70         O  0.10709728  0.66272816  0.75052543    -0.73200
Al71       Al  0.14373292  0.69945243  0.74526090     1.49000
C72         C  0.09632557  0.64657242  0.76639198     0.94100
O73         O  0.15777001  0.63738068  0.78228650    -0.79500
O74         O  0.22689705  0.71959685  0.76624966    -0.73000
Al75       Al  0.15789720  0.67572428  0.78628608     1.90100
O76         O  0.20078560  0.65696024  0.76474429    -0.72100
O77         O  0.20871178  0.72050497  0.72905996    -0.71900
O78         O  0.17441425  0.65773768  0.72995062    -0.77600
O79         O  0.17782724  0.73855863  0.73753685    -0.75800
O80         O  0.16687180  0.68798900  0.76015170    -1.11900
O81         O  0.13674238  0.72157595  0.76707985    -0.71100
C82         C  0.14504379  0.72640844  0.78565827     0.99600
C83         C  0.18102515  0.63562104  0.77595620     0.96000
Al84       Al  0.19975631  0.68862279  0.74850310     1.55600
O85         O  0.11287446  0.65204237  0.78235665    -0.75800
C86         C  0.20153862  0.74162023  0.72824754     1.00100
C87         C  0.22681486  0.71627241  0.78539468     0.95000
O88         O  0.20197199  0.69727498  0.79491872    -0.81100
O89         O  0.11480653  0.92786194  0.86678664    -0.80500
C90         C  0.17896129  0.97846445  0.94107922     0.98800
O91         O  0.15341351  0.97639550  0.93554476    -0.69700
O92         O  0.14829707  0.00213294  0.90210354    -0.73200
Al93       Al  0.12737090  0.96056865  0.91224281     1.49000
C94         C  0.14867801  0.00828873  0.88338714     0.94100
O95         O  0.20147890  0.98577085  0.87805810    -0.79500
O96         O  0.15344167  0.89597686  0.89446500    -0.73000
Al97       Al  0.15819547  0.95642323  0.87252933     1.90100
O98         O  0.20865214  0.95264677  0.89683676    -0.72100
O99         O  0.13709648  0.90679760  0.93081049    -0.71900
O100        O  0.18996879  0.96339530  0.93208511    -0.77600
O101        O  0.10259430  0.92148020  0.92449479    -0.75800
O102        O  0.15175911  0.94912907  0.89930847    -1.11900
O103        O  0.09674405  0.94626711  0.89096235    -0.71100
C104        C  0.09230077  0.92938987  0.87535401     0.99600
C105        C  0.21920551  0.97923564  0.88868707     0.96000
Al106      Al  0.17066291  0.93107099  0.91244670     1.55600
O107        O  0.15023357  0.99039198  0.87044720    -0.75800
C108        C  0.11031091  0.90371476  0.93342242     1.00100
C109        C  0.15755801  0.89790933  0.87531253     0.95000
O110        O  0.16690363  0.92360101  0.86635481    -0.81100
O111        O  0.53192902  0.14177201  0.97484309    -0.80500
C112        C  0.45892654  0.11439429  0.90330980     0.98800
O113        O  0.48342902  0.13952825  0.90705054    -0.69700
O114        O  0.49276199  0.17571713  0.93773517    -0.73200
Al115      Al  0.51323757  0.15377911  0.92825291     1.49000
C116        C  0.49406653  0.18413991  0.95597720     0.94100
O117        O  0.44354524  0.11034309  0.96564835    -0.79500
O118        O  0.49394042  0.06841938  0.95356693    -0.73000
Al119      Al  0.48762337  0.12554827  0.97044142     1.90100
O120        O  0.43728442  0.06801792  0.95021328    -0.72100
O121        O  0.50733258  0.08850783  0.91570663    -0.71900
O122        O  0.45222493  0.08989912  0.91307137    -0.77600
O123        O  0.53765978  0.13870604  0.91575853    -0.75800
O124        O  0.49211181  0.12053377  0.94392154    -1.11900
O125        O  0.54635642  0.17293959  0.94754843    -0.71100
C126        C  0.55290124  0.16400343  0.96419009     0.99600
C127        C  0.42604142  0.08461257  0.95676133     0.96000
Al128      Al  0.47430611  0.08194942  0.93391646     1.55600
O129        O  0.49448161  0.16688934  0.96992129    -0.75800
C130        C  0.53232337  0.11218035  0.91044786     1.00100
C131        C  0.48833971  0.06734327  0.97247505     0.95000
O132        O  0.48009418  0.08569818  0.97986178    -0.81100
O133        O  0.15071098  0.20516943  0.37979135    -0.80500
C134        C  0.14850447  0.15309593  0.45678708     0.98800
O135        O  0.15689271  0.18154851  0.45390037    -0.69700
O136        O  0.19865153  0.20412106  0.42534458    -0.73200
Al137      Al  0.16123233  0.20441620  0.42879493     1.49000
C138        C  0.21140072  0.20083460  0.40962185     0.94100
O139        O  0.15191498  0.13057710  0.39190257    -0.79500
O140        O  0.08046779  0.14284816  0.40563139    -0.73000
Al141      Al  0.15080877  0.16853501  0.38775138     1.90100
O142        O  0.10796670  0.10712491  0.40852430    -0.72100
O143        O  0.09549737  0.16107741  0.44312229    -0.71900
O144        O  0.13114002  0.13274963  0.44407020    -0.77600
O145        O  0.12596476  0.20929680  0.43439548    -0.75800
O146        O  0.13987526  0.17069501  0.41353490    -1.11900
O147        O  0.17013655  0.23373185  0.40706310    -0.71100
C148        C  0.16141947  0.23093413  0.38863084     0.99600
C149        C  0.12849675  0.10572815  0.39779397     0.96000
Al150      Al  0.10664819  0.13865584  0.42439565     1.55600
O151        O  0.19596831  0.19046615  0.39313089    -0.75800
C152        C  0.10198992  0.18905736  0.44343224     1.00100
C153        C  0.08188879  0.14060057  0.38650206     0.95000
O154        O  0.10737171  0.14623743  0.37773874    -0.81100
O155        O  0.50370288  0.38408596  0.46543818    -0.80500
C156        C  0.50136160  0.33679170  0.38633558     0.98800
O157        O  0.49473701  0.35790299  0.39057899    -0.69700
O158        O  0.45379897  0.33842300  0.41996390    -0.73200
Al159      Al  0.49173994  0.37499016  0.41659674     1.49000
C160        C  0.44170790  0.32169602  0.43552077     0.94100
O161        O  0.50003607  0.30778440  0.45292461    -0.79500
O162        O  0.57250491  0.38586652  0.43729820    -0.73000
Al163      Al  0.50251803  0.34720158  0.45684784     1.90100
O164        O  0.54101016  0.32362982  0.43361289    -0.72100
O165        O  0.55596049  0.39275509  0.40104219    -0.71900
O166        O  0.51689248  0.33000450  0.39874180    -0.77600
O167        O  0.52817652  0.41377665  0.41122628    -0.75800
O168        O  0.51251722  0.36000238  0.43090088    -1.11900
O169        O  0.48366489  0.39512499  0.43912494    -0.71100
C170        C  0.49261738  0.39976150  0.45752486     0.99600
C171        C  0.52157402  0.30381129  0.44577767     0.96000
Al172      Al  0.54378825  0.35808253  0.41873894     1.55600
O173        O  0.45739398  0.32580236  0.45186344    -0.75800
C174        C  0.55126514  0.41560758  0.40162124     1.00100
C175        C  0.57161709  0.38399155  0.45655329     0.95000
O176        O  0.54620617  0.36649449  0.46602078    -0.81100
O177        O  0.78252374  0.26784838  0.20127432    -0.80500
C178        C  0.84766256  0.31391618  0.27501265     0.98800
O179        O  0.82347671  0.31493289  0.26966839    -0.69700
O180        O  0.81839527  0.34162301  0.23683606    -0.73200
Al181      Al  0.79620494  0.30010057  0.24688003     1.49000
C182        C  0.81836765  0.34820897  0.21826795     0.94100
O183        O  0.86944789  0.32306562  0.21267178    -0.79500
O184        O  0.81632802  0.23256763  0.22679632    -0.73000
Al185      Al  0.82585880  0.29532326  0.20679901     1.90100
O186        O  0.87373021  0.28710618  0.23033245    -0.72100
O187        O  0.80119753  0.24224367  0.26363178    -0.71900
O188        O  0.85604665  0.29674353  0.26597179    -0.77600
O189        O  0.77003032  0.26151522  0.25951239    -0.75800
O190        O  0.81889817  0.28712454  0.23344404    -1.11900
O191        O  0.76514171  0.28661994  0.22579679    -0.71100
C192        C  0.76026214  0.26901686  0.21047611     0.99600
C193        C  0.88602025  0.31425983  0.22272110     0.96000
Al194      Al  0.83539146  0.26624413  0.24568140     1.55600
O195        O  0.81893749  0.33011613  0.20506861    -0.75800
C196        C  0.77565979  0.24148777  0.26722738     1.00100
C197        C  0.82252643  0.23564327  0.20790597     0.95000
O198        O  0.83369801  0.26217064  0.19984914    -0.81100
O199        O  0.19671362  0.47306838  0.31604115    -0.80500
C200        C  0.14236018  0.45810987  0.23760790     0.98800
O201        O  0.16869080  0.48007299  0.24297096    -0.69700
O202        O  0.17287503  0.51452115  0.27414096    -0.73200
Al203      Al  0.19213711  0.49036770  0.26778610     1.49000
C204        C  0.16942244  0.52142088  0.29208771     0.94100
O205        O  0.11228268  0.44732767  0.29892137    -0.79500
O206        O  0.16095242  0.40294374  0.28895503    -0.73000
Al207      Al  0.15472702  0.45983702  0.30709250     1.90100
O208        O  0.10638327  0.40548373  0.28334771    -0.72100
O209        O  0.17877506  0.42566961  0.25206020    -0.71900
O210        O  0.12838390  0.43339185  0.24796153    -0.77600
O211        O  0.21625546  0.47205705  0.25911197    -0.75800
O212        O  0.16435713  0.45694138  0.28118181    -1.11900
O213        O  0.22016474  0.50618538  0.29052273    -0.71100
C214        C  0.22105887  0.49502764  0.30786937     0.99600
C215        C  0.09512430  0.42214031  0.28951762     0.96000
Al216      Al  0.14527426  0.41987800  0.26913419     1.55600
O217        O  0.16375840  0.50210850  0.30629315    -0.75800
C218        C  0.20675254  0.44647206  0.25024052     1.00100
C219        C  0.15433173  0.40114560  0.30774431     0.95000
O220        O  0.14442976  0.41826681  0.31524801    -0.81100
O221        O  0.83382382  0.05199079  0.13134839    -0.80500
C222        C  0.82836405  0.99615067  0.05564436     0.98800
O223        O  0.81861832  0.01543835  0.05837095    -0.69700
O224        O  0.78088134  0.99765634  0.08922483    -0.73200
Al225      Al  0.81594505  0.03548594  0.08342708     1.49000
C226        C  0.77096751  0.98406869  0.10606463     0.94100
O227        O  0.83256762  0.97677504  0.12044022    -0.79500
O228        O  0.90106860  0.05882588  0.10308970    -0.73000
Al229      Al  0.83355888  0.01532374  0.12429147     1.90100
O230        O  0.87514591  0.99584793  0.10222388    -0.72100
O231        O  0.88077475  0.05858731  0.06653617    -0.71900
O232        O  0.84811803  0.99555294  0.06769364    -0.77600
O233        O  0.84871922  0.07520890  0.07544786    -0.75800
O234        O  0.84081857  0.02598642  0.09793250    -1.11900
O235        O  0.80784355  0.05665879  0.10555860    -0.71100
C236        C  0.81963300  0.06461961  0.12326837     0.99600
C237        C  0.85545430  0.97471488  0.11365728     0.96000
Al238      Al  0.87352537  0.02711035  0.08585330     1.55600
O239        O  0.78824537  0.99226039  0.12180914    -0.75800
C240        C  0.87271972  0.07912422  0.06606289     1.00100
C241        C  0.90210685  0.05572308  0.12217152     0.95000
O242        O  0.87789507  0.03644561  0.13205220    -0.81100
O243        O  0.48089525  0.87521777  0.05505673    -0.80500
C244        C  0.48545253  0.83477394  0.13499784     0.98800
O245        O  0.49477623  0.86279713  0.12996981    -0.69700
O246        O  0.53320753  0.87816058  0.09975257    -0.73200
Al247      Al  0.49774999  0.88167121  0.10332426     1.49000
C248        C  0.54376853  0.87233035  0.08393976     0.94100
O249        O  0.48298910  0.80275539  0.07094643    -0.79500
O250        O  0.41340268  0.81761482  0.08472097    -0.73000
Al251      Al  0.48174689  0.83987389  0.06473214     1.90100
O252        O  0.44101292  0.78203578  0.08978187    -0.72100
O253        O  0.43289397  0.84269118  0.12033715    -0.71900
O254        O  0.46712448  0.81300957  0.12345773    -0.77600
O255        O  0.46444999  0.88936995  0.10879849    -0.75800
O256        O  0.47376312  0.84601614  0.09042859    -1.11900
O257        O  0.50594361  0.90793032  0.07960438    -0.71100
C258        C  0.49391843  0.90239260  0.06192989     0.99600
C259        C  0.46011063  0.77897196  0.07847014     0.96000
Al260      Al  0.44135937  0.81629642  0.10351407     1.55600
O261        O  0.52711248  0.86172180  0.06798536    -0.75800
C262        C  0.44091449  0.87108250  0.11906803     1.00100
C263        C  0.41300900  0.81229616  0.06584293     0.95000
O264        O  0.43769666  0.81662623  0.05665033    -0.81100
O265        O  0.59134732  0.08562166  0.46575791    -0.80500
C266        C  0.63736997  0.13775970  0.38794771     0.98800
O267        O  0.61853140  0.10904714  0.39103733    -0.69700
O268        O  0.63888789  0.08696788  0.41939361    -0.73200
Al269      Al  0.60081110  0.08589133  0.41644546     1.49000
C270        C  0.65606438  0.09143569  0.43462519     0.94100
O271        O  0.66468161  0.16023902  0.45237500    -0.79500
O272        O  0.58014657  0.14677823  0.44046490    -0.73000
Al273      Al  0.62681153  0.12234838  0.45722415     1.90100
O274        O  0.64274874  0.18329594  0.43658330    -0.72100
O275        O  0.57646378  0.12853463  0.40291394    -0.71900
O276        O  0.63981582  0.15780255  0.40084657    -0.77600
O277        O  0.56043718  0.08023547  0.41107027    -0.75800
O278        O  0.61262526  0.11966527  0.43168601    -1.11900
O279        O  0.58123515  0.05644555  0.43866175    -0.71100
C280        C  0.57617723  0.05959612  0.45728522     0.99600
C281        C  0.66530754  0.18487935  0.44664872     0.96000
Al282      Al  0.61004343  0.15137556  0.42111825     1.55600
O283        O  0.65095813  0.10124683  0.45136818    -0.75800
C284        C  0.55600466  0.10037511  0.40230775     1.00100
C285        C  0.58483505  0.14967980  0.45949608     0.95000
O286        O  0.60529716  0.14436765  0.46778726    -0.81100
O287        O  0.76589211  0.90961598  0.38089693    -0.80500
C288        C  0.81555557  0.96733559  0.45660992     0.98800
O289        O  0.78686618  0.94853234  0.45331910    -0.69700
O290        O  0.76694914  0.96528423  0.42182063    -0.73200
Al291      Al  0.76477429  0.92773356  0.42848881     1.49000
C292        C  0.77138426  0.97906114  0.40497606     0.94100
O293        O  0.84023712  0.98441203  0.39051469    -0.79500
O294        O  0.82751491  0.90403662  0.41057857    -0.73000
Al295      Al  0.80250261  0.94616018  0.38761357     1.90100
O296        O  0.86371885  0.96699703  0.41047968    -0.72100
O297        O  0.80650393  0.90490162  0.44681691    -0.71900
O298        O  0.83616628  0.96824299  0.44466522    -0.77600
O299        O  0.75828761  0.88854616  0.43745082    -0.75800
O300        O  0.79921006  0.93669270  0.41426787    -1.11900
O301        O  0.73570229  0.90540879  0.40668650    -0.71100
C302        C  0.73933129  0.89698332  0.38908159     0.99600
C303        C  0.86502471  0.98720812  0.39807014     0.96000
Al304      Al  0.83077928  0.93611985  0.42701418     1.55600
O305        O  0.78109465  0.97072231  0.38949775    -0.75800
C306        C  0.77792359  0.88502439  0.44774819     1.00100
C307        C  0.82973155  0.90452939  0.39135868     0.95000
O308        O  0.82466008  0.92326326  0.38069267    -0.81100
O309        O  0.09458925  0.57928512  0.04733789    -0.80500
C310        C  0.14514128  0.62394216  0.12584901     0.98800
O311        O  0.11642895  0.60501667  0.12237320    -0.69700
O312        O  0.09220474  0.62218350  0.09338363    -0.73200
Al313      Al  0.09391736  0.58575938  0.09707860     1.49000
C314        C  0.09854425  0.64076916  0.07871532     0.94100
O315        O  0.16980742  0.65181960  0.06108618    -0.79500
O316        O  0.15796287  0.56895984  0.07364523    -0.73000
Al317      Al  0.13165121  0.61401457  0.05641047     1.90100
O318        O  0.19305290  0.63083091  0.07752311    -0.72100
O319        O  0.13921682  0.56484105  0.11141000    -0.71900
O320        O  0.16579918  0.62721084  0.11298563    -0.77600
O321        O  0.09041886  0.54653774  0.10342723    -0.75800
O322        O  0.12857180  0.59928874  0.08199546    -1.11900
O323        O  0.06538816  0.56445374  0.07491177    -0.71100
C324        C  0.06884582  0.56201352  0.05591782     0.99600
C325        C  0.19463780  0.65282024  0.06698334     0.96000
Al326      Al  0.16104812  0.59810100  0.09288377     1.55600
O327        O  0.11077723  0.63778243  0.06240552    -0.75800
C328        C  0.11136083  0.54360698  0.11248020     1.00100
C329        C  0.15969017  0.57294507  0.05448584     0.95000
O330        O  0.15358960  0.59265500  0.04601814    -0.81100
O331        O  0.92016576  0.75304667  0.13130317    -0.80500
C332        C  0.97256199  0.80374583  0.05430655     0.98800
O333        O  0.95628292  0.77502640  0.05829835    -0.69700
O334        O  0.97877174  0.75896561  0.08876437    -0.73200
Al335      Al  0.93888915  0.75287346  0.08370667     1.49000
C336        C  0.99110578  0.76079245  0.10586694     0.94100
O337        O  0.99537464  0.82707782  0.11995259    -0.79500
O338        O  0.91089286  0.81144315  0.10476727    -0.73000
Al339      Al  0.95717004  0.78952558  0.12434303     1.90100
O340        O  0.97470533  0.84965871  0.10171026    -0.72100
O341        O  0.90873855  0.79016127  0.06819168    -0.71900
O342        O  0.97269395  0.82360920  0.06639923    -0.77600
O343        O  0.89790373  0.74299923  0.07653364    -0.75800
O344        O  0.94611104  0.78621379  0.09805921    -1.11900
O345        O  0.91983498  0.72361848  0.10614909    -0.71100
C346        C  0.90921405  0.72667931  0.12317001     0.99600
C347        C  0.99663580  0.85149248  0.11288284     0.96000
Al348      Al  0.94206784  0.81626946  0.08624048     1.55600
O349        O  0.98100813  0.76765980  0.12177151    -0.75800
C350        C  0.89094587  0.76115073  0.06737628     1.00100
C351        C  0.91553249  0.81654400  0.12363659     0.95000
O352        O  0.93595735  0.81231979  0.13275653    -0.81100
O353        O  0.70693330  0.48722434  0.19803867    -0.80500
C354        C  0.67002243  0.49714400  0.27805779     0.98800
O355        O  0.67133640  0.47405376  0.27099418    -0.69700
O356        O  0.63965416  0.44478480  0.23883822    -0.73200
Al357      Al  0.68288523  0.46483423  0.24520106     1.49000
C358        C  0.62983373  0.43939004  0.22074222     0.94100
O359        O  0.65061918  0.51502957  0.21782748    -0.79500
O360        O  0.74333922  0.55379949  0.22632624    -0.73000
Al361      Al  0.67902838  0.50105917  0.20797233     1.90100
O362        O  0.68754510  0.55340499  0.23530535    -0.72100
O363        O  0.73936159  0.52660906  0.26146853    -0.71900
O364        O  0.68325870  0.52302494  0.26901792    -0.77600
O365        O  0.72443653  0.47861121  0.25353919    -0.75800
O366        O  0.69129757  0.50058261  0.23359790    -1.11900
O367        O  0.69331337  0.44976102  0.22115230    -0.71100
C368        C  0.70822503  0.46389157  0.20514340     0.99600
C369        C  0.65940230  0.53865545  0.22934120     0.96000
Al370      Al  0.71181439  0.53636077  0.24690499     1.55600
O371        O  0.64475371  0.45926601  0.20708777    -0.75800
C372        C  0.74360302  0.50350901  0.26201456     1.00100
C373        C  0.73833084  0.55747843  0.20786734     0.95000
O374        O  0.71089046  0.54257560  0.20093043    -0.81100
O375        O  0.49848054  0.69574916  0.31870768    -0.80500
C376        C  0.50060490  0.65898209  0.23719903     0.98800
O377        O  0.47880797  0.66151484  0.24562806    -0.69700
O378        O  0.45084477  0.62950757  0.27854744    -0.73200
Al379      Al  0.47198888  0.67267350  0.27228073     1.49000
C380        C  0.44625255  0.61973198  0.29673576     0.94100
O381        O  0.52220975  0.63722898  0.29637410    -0.79500
O382        O  0.56327043  0.72977760  0.28813250    -0.73000
Al383      Al  0.51013623  0.66662906  0.30756105     1.90100
O384        O  0.55998704  0.67376900  0.27808536    -0.72100
O385        O  0.53380060  0.72705702  0.25424812    -0.71900
O386        O  0.52704853  0.67021821  0.24561313    -0.77600
O387        O  0.48694402  0.71456986  0.26456076    -0.75800
O388        O  0.50825342  0.67932434  0.28229826    -1.11900
O389        O  0.45914462  0.68306661  0.29726469    -0.71100
C390        C  0.47501741  0.69799864  0.31265602     0.99600
C391        C  0.54545733  0.64586270  0.28420954     0.96000
Al392      Al  0.54321572  0.69868643  0.26773134     1.55600
O393        O  0.46750081  0.63370444  0.30973991    -0.75800
C394        C  0.51164813  0.73286258  0.25525324     1.00100
C395        C  0.56840228  0.72423880  0.30617429     0.95000
O396        O  0.55295561  0.69699687  0.31322969    -0.81100
O397        O  0.03842251  0.14921025  0.86601599    -0.80500
C398        C  0.98953215  0.15800360  0.94252188     0.98800
O399        O  0.99531564  0.13678037  0.93720595    -0.69700
O400        O  0.96785580  0.10477333  0.90434981    -0.73200
Al401      Al  0.01045183  0.12812923  0.91263528     1.49000
C402        C  0.95988479  0.09896725  0.88585925     0.94100
O403        O  0.97651251  0.17291568  0.87992231    -0.79500
O404        O  0.06720737  0.21775729  0.89484883    -0.73000
Al405      Al  0.00792589  0.16132621  0.87338226     1.90100
O406        O  0.00894250  0.21323570  0.89818863    -0.72100
O407        O  0.05966815  0.19178324  0.93082011    -0.71900
O408        O  0.00043519  0.18304795  0.93256669    -0.77600
O409        O  0.05184605  0.14582310  0.92268409    -0.75800
O410        O  0.01713584  0.16247905  0.89981952    -1.11900
O411        O  0.02462003  0.11355590  0.89034620    -0.71100
C412        C  0.03943751  0.12624778  0.87403994     0.99600
C413        C  0.98250289  0.19720252  0.88994846     0.96000
Al414      Al  0.03283555  0.19850365  0.91300678     1.55600
O415        O  0.97543262  0.11881599  0.87232282    -0.75800
C416        C  0.06751338  0.17111486  0.93192258     1.00100
C417        C  0.06470815  0.22074335  0.87588619     0.95000
O418        O  0.03907604  0.20343111  0.86704458    -0.81100
O419        O  0.83305514  0.36527581  0.97194717    -0.80500
C420        C  0.85074317  0.31453511  0.89949308     0.98800
O421        O  0.82785597  0.31868875  0.90320120    -0.69700
O422        O  0.79280395  0.29342957  0.93481826    -0.73200
Al423      Al  0.81649389  0.33524132  0.92567766     1.49000
C424        C  0.78434982  0.28685828  0.95313616     0.94100
O425        O  0.85811347  0.30372183  0.96180047    -0.79500
O426        O  0.90532695  0.39465575  0.94758197    -0.73000
Al427      Al  0.84595829  0.33496081  0.96692478     1.90100
O428        O  0.90097021  0.33660559  0.94541771    -0.72100
O429        O  0.88283445  0.38751047  0.91031186    -0.71900
O430        O  0.87596279  0.32888225  0.90921247    -0.77600
O431        O  0.83394720  0.37504200  0.91424416    -0.75800
O432        O  0.85012241  0.34389018  0.94032109    -1.11900
O433        O  0.79961512  0.35056102  0.94600960    -0.71100
C434        C  0.81109769  0.36618988  0.96217876     0.99600
C435        C  0.88310582  0.30958911  0.95234477     0.96000
Al436      Al  0.88815537  0.36062976  0.92899726     1.55600
O437        O  0.80296427  0.30284136  0.96703337    -0.75800
C438        C  0.86060714  0.39283252  0.90715688     1.00100
C439        C  0.90608950  0.39157250  0.96672067     0.95000
O440        O  0.88750821  0.36593190  0.97509232    -0.81100
O441        O  0.25099281  0.41672439  0.80133804    -0.80500
C442        C  0.30827220  0.46369567  0.72522680     0.98800
O443        O  0.28898590  0.43525529  0.72858334    -0.69700
O444        O  0.30589602  0.41568414  0.76022765    -0.73200
Al445      Al  0.26819119  0.41379494  0.75363735     1.49000
C446        C  0.31936082  0.41983773  0.77715473     0.94100
O447        O  0.32654334  0.48957909  0.78997620    -0.79500
O448        O  0.24435049  0.47608874  0.77103689    -0.73000
Al449      Al  0.28779523  0.45246096  0.79391017     1.90100
O450        O  0.30745853  0.51209215  0.77061937    -0.72100
O451        O  0.24603763  0.45537732  0.73480254    -0.71900
O452        O  0.30930360  0.48454049  0.73683398    -0.77600
O453        O  0.22853177  0.40745155  0.74466574    -0.75800
O454        O  0.27760546  0.44832920  0.76741939    -1.11900
O455        O  0.24623581  0.38575492  0.77598714    -0.71100
C456        C  0.23829685  0.39010484  0.79358720     0.99600
C457        C  0.32821222  0.51399587  0.78276562     0.96000
Al458      Al  0.27687338  0.47939214  0.75441308     1.55600
O459        O  0.31148720  0.43033869  0.79238415    -0.75800
C460        C  0.22551431  0.42721093  0.73414552     1.00100
C461        C  0.24668789  0.48041561  0.79011430     0.95000
O462        O  0.26579781  0.47555866  0.80057569    -0.81100
O463        O  0.42615376  0.23572714  0.71956037    -0.80500
C464        C  0.46422342  0.28493816  0.79901336     0.98800
O465        O  0.43625097  0.26593630  0.79399390    -0.69700
O466        O  0.41934484  0.28534566  0.76226858    -0.73200
Al467      Al  0.41798955  0.24784201  0.76754866     1.49000
C468        C  0.42526711  0.30075066  0.74600498     0.94100
O469        O  0.49604972  0.31091243  0.73463584    -0.79500
O470        O  0.48594228  0.22998824  0.75146766    -0.73000
Al471      Al  0.46056386  0.27227201  0.72893464     1.90100
O472        O  0.51916174  0.29311114  0.75458439    -0.72100
O473        O  0.45966766  0.22576374  0.78664823    -0.71900
O474        O  0.48669849  0.28879979  0.78772374    -0.77600
O475        O  0.41239684  0.20822905  0.77480971    -0.75800
O476        O  0.45443470  0.25983230  0.75503499    -1.11900
O477        O  0.39229524  0.22794405  0.74378563    -0.71100
C478        C  0.39850567  0.22224075  0.72600849     0.99600
C479        C  0.52057208  0.31392726  0.74268660     0.96000
Al480      Al  0.48523915  0.25949357  0.76893791     1.55600
O481        O  0.43698548  0.29451889  0.73062778    -0.75800
C482        C  0.43158408  0.20460069  0.78559879     1.00100
C483        C  0.49143963  0.23373270  0.73253813     0.95000
O484        O  0.48596893  0.25258814  0.72233038    -0.81100
O485        O  0.16945564  0.02544936  0.64315062    -0.80500
C486        C  0.18170727  0.97902992  0.56699493     0.98800
O487        O  0.15827445  0.98110973  0.57281707    -0.69700
O488        O  0.12773714  0.95390401  0.60567237    -0.73200
Al489      Al  0.14824050  0.99587557  0.59700616     1.49000
C490        C  0.12075985  0.94622793  0.62405150     0.94100
O491        O  0.19530846  0.96611554  0.62916107    -0.79500
O492        O  0.23743046  0.05732076  0.61579144    -0.73000
Al493      Al  0.18244511  0.99593248  0.63613303     1.90100
O494        O  0.23593012  0.00032561  0.61123292    -0.72100
O495        O  0.21137318  0.04974558  0.57940534    -0.71900
O496        O  0.20744276  0.99306853  0.57621113    -0.77600
O497        O  0.16273064  0.03573244  0.58608523    -0.75800
O498        O  0.18351106  0.00535935  0.60968486    -1.11900
O499        O  0.13254864  0.00966371  0.61939025    -0.71100
C500        C  0.14624689  0.02601238  0.63499721     0.99600
C501        C  0.21994638  0.97333127  0.61886079     0.96000
Al502      Al  0.22016207  0.02379053  0.59674489     1.55600
O503        O  0.13967688  0.96268587  0.63771039    -0.75800
C504        C  0.18796313  0.05349564  0.57720650     1.00100
C505        C  0.24087886  0.05355652  0.63454009     0.95000
O506        O  0.22450029  0.02718019  0.64266694    -0.81100
O507        O  0.37666338  0.81641230  0.53231681    -0.80500
C508        C  0.32584050  0.82528566  0.60757302     0.98800
O509        O  0.32889316  0.80261847  0.60172768    -0.69700
O510        O  0.30222394  0.77369209  0.56834797    -0.73200
Al511      Al  0.34420915  0.79344789  0.57761117     1.49000
C512        C  0.29559306  0.76758950  0.54977460     0.94100
O513        O  0.31606742  0.84138885  0.54502928    -0.79500
O514        O  0.40716487  0.88327808  0.56007238    -0.73000
Al515      Al  0.34647578  0.82894356  0.53866082     1.90100
O516        O  0.34935018  0.88100419  0.56383354    -0.72100
O517        O  0.39736370  0.85515981  0.59664450    -0.71900
O518        O  0.33991770  0.85111588  0.59849201    -0.77600
O519        O  0.38390836  0.80728651  0.58901262    -0.75800
O520        O  0.35449866  0.82902255  0.56524174    -1.11900
O521        O  0.35843575  0.77837128  0.55533787    -0.71100
C522        C  0.37645185  0.79292150  0.54047412     0.99600
C523        C  0.32273425  0.86546625  0.55552561     0.96000
Al524      Al  0.37224607  0.86485097  0.57864358     1.55600
O525        O  0.31320845  0.78663901  0.53646721    -0.75800
C526        C  0.40066544  0.83154383  0.59895682     1.00100
C527        C  0.40397069  0.88759044  0.54131998     0.95000
O528        O  0.37799543  0.87090273  0.53276747    -0.81100
O529        O  0.54460199  0.79773252  0.80235252    -0.80500
C530        C  0.50174777  0.80045929  0.72258020     0.98800
O531        O  0.52999344  0.80870680  0.72677542    -0.69700
O532        O  0.54931952  0.84805063  0.75658285    -0.73200
Al533      Al  0.54989104  0.81104599  0.75301984     1.49000
C534        C  0.54408067  0.85956035  0.77215218     0.94100
O535        O  0.47221866  0.80107046  0.78598121    -0.79500
O536        O  0.48445292  0.72966595  0.77384685    -0.73000
Al537      Al  0.50911049  0.79879701  0.79234767     1.90100
O538        O  0.44978678  0.75820770  0.76855246    -0.72100
O539        O  0.50765672  0.74621660  0.73720782    -0.71900
O540        O  0.47986395  0.78238384  0.73429590    -0.77600
O541        O  0.55534015  0.77643283  0.74741240    -0.75800
O542        O  0.51425076  0.78912323  0.76674197    -1.11900
O543        O  0.57653900  0.81772188  0.77618605    -0.71100
C544        C  0.57129659  0.80826542  0.79453537     0.99600
C545        C  0.44781433  0.77880300  0.77865858     0.96000
Al546      Al  0.48311447  0.75688924  0.75452679     1.55600
O547        O  0.53212273  0.84344440  0.78814997    -0.75800
C548        C  0.53589844  0.75298408  0.73776698     1.00100
C549        C  0.48007207  0.73055143  0.79279803     0.95000
O550        O  0.48497692  0.75558124  0.80142747    -0.81100
O551        O  0.72905879  0.14878423  0.71806305    -0.80500
C552        C  0.67531686  0.13954524  0.79560480     0.98800
O553        O  0.69500017  0.13049086  0.79192110    -0.69700
O554        O  0.67868203  0.09406714  0.76051461    -0.73200
Al555      Al  0.71546065  0.13014438  0.76632597     1.49000
C556        C  0.66388314  0.08457471  0.74411302     0.94100
O557        O  0.65235383  0.14576747  0.73152765    -0.79500
O558        O  0.73504497  0.21452557  0.74801926    -0.73000
Al559      Al  0.69177183  0.14750696  0.72658686     1.90100
O560        O  0.67180301  0.18708005  0.75049589    -0.72100
O561        O  0.73687577  0.19373055  0.78444803    -0.71900
O562        O  0.67350845  0.15926351  0.78420079    -0.77600
O563        O  0.75462975  0.16331949  0.77436835    -0.75800
O564        O  0.70378283  0.15425756  0.75278365    -1.11900
O565        O  0.73764960  0.12494445  0.74351778    -0.71100
C566        C  0.74412318  0.13667827  0.72569074     0.99600
C567        C  0.65036504  0.16823567  0.73900444     0.96000
Al568      Al  0.70426790  0.18589105  0.76570651     1.55600
O569        O  0.66946401  0.10250916  0.72887709    -0.75800
C570        C  0.75779624  0.18609734  0.78458998     1.00100
C571        C  0.73072008  0.21581530  0.72908958     0.95000
O572        O  0.71177005  0.19163255  0.71927542    -0.81100
O573        O  0.15307268  0.51844324  0.53452947    -0.80500
C574        C  0.13894796  0.45469131  0.60917988     0.98800
O575        O  0.16213130  0.48019359  0.60397772    -0.69700
O576        O  0.19423971  0.48600418  0.57141174    -0.73200
Al577      Al  0.17237573  0.50637180  0.58063302     1.49000
C578        C  0.20144281  0.48616725  0.55296887     0.94100
O579        O  0.12762185  0.43279916  0.54598849    -0.79500
O580        O  0.08292235  0.47962749  0.56046914    -0.73000
Al581      Al  0.14016985  0.47566807  0.54040706     1.90100
O582        O  0.08641648  0.42516740  0.56408916    -0.72100
O583        O  0.10752675  0.49609010  0.59710694    -0.71900
O584        O  0.11337042  0.44390780  0.59975411    -0.77600
O585        O  0.15640267  0.53052494  0.59222477    -0.75800
O586        O  0.13778582  0.48185915  0.56705734    -1.11900
O587        O  0.18846142  0.53707241  0.55927244    -0.71100
C588        C  0.17598029  0.54106820  0.54334766     0.99600
C589        C  0.10267632  0.41477168  0.55566814     0.96000
Al590      Al  0.10059329  0.46284656  0.57934059     1.55600
O591        O  0.18276910  0.48473167  0.53932349    -0.75800
C592        C  0.13024537  0.52281571  0.60005708     1.00100
C593        C  0.08050409  0.47379516  0.54156576     0.95000
O594        O  0.09848340  0.46564646  0.53327461    -0.81100
O595        O  0.94803323  0.10428977  0.64414318    -0.80500
C596        C  0.99220015  0.16446639  0.56789438     0.98800
O597        O  0.99174251  0.13987256  0.57374878    -0.69700
O598        O  0.01950550  0.13425896  0.60601054    -0.73200
Al599      Al  0.97701910  0.11420161  0.59735987     1.49000
C600        C  0.02740175  0.13512125  0.62438198     0.94100
O601        O  0.00683040  0.18909152  0.63026521    -0.79500
O602        O  0.91471506  0.14127354  0.61877499    -0.73000
Al603      Al  0.97716873  0.14668417  0.63725195     1.90100
O604        O  0.97177642  0.19592718  0.61326204    -0.72100
O605        O  0.92095921  0.12357969  0.58194376    -0.71900
O606        O  0.97749026  0.17535875  0.57748771    -0.77600
O607        O  0.93698156  0.08987862  0.58605577    -0.75800
O608        O  0.96714048  0.13916152  0.61086905    -1.11900
O609        O  0.96311311  0.08419569  0.61913270    -0.71100
C610        C  0.94752003  0.08106499  0.63537501     0.99600
C611        C  0.99923277  0.20651699  0.62022857     0.96000
Al612      Al  0.94771204  0.15746119  0.59890667     1.55600
O613        O  0.01068280  0.13736948  0.63806676    -0.75800
C614        C  0.91802466  0.09726322  0.57848785     1.00100
C615        C  0.91901437  0.14781886  0.63756470     0.95000
O616        O  0.94584302  0.15737302  0.64502365    -0.81100
O617        O  0.60109647  0.43272534  0.97824157    -0.80500
C618        C  0.64125917  0.48674801  0.89984581     0.98800
O619        O  0.63569335  0.46018705  0.90574408    -0.69700
O620        O  0.66870683  0.45903764  0.93674325    -0.73200
Al621      Al  0.62515356  0.43870677  0.93115916     1.49000
C622        C  0.67943037  0.46247006  0.95464706     0.94100
O623        O  0.66096970  0.51662715  0.96351851    -0.79500
O624        O  0.56978596  0.47354962  0.95164345    -0.73000
Al625      Al  0.63083353  0.47458344  0.97042571     1.90100
O626        O  0.62784913  0.52534458  0.94577065    -0.72100
O627        O  0.57371504  0.45264430  0.91525947    -0.71900
O628        O  0.63278421  0.50242811  0.91061846    -0.77600
O629        O  0.58265443  0.41490930  0.92392918    -0.75800
O630        O  0.61936955  0.46664857  0.94436039    -1.11900
O631        O  0.61534744  0.41119019  0.95406908    -0.71100
C632        C  0.59977553  0.40890694  0.97002861     0.99600
C633        C  0.65447329  0.53501003  0.95380309     0.96000
Al634      Al  0.60231903  0.48682744  0.93190243     1.55600
O635        O  0.66421233  0.46501208  0.96935993    -0.75800
C636        C  0.56624799  0.42428689  0.91479969     1.00100
C637        C  0.57415413  0.47880034  0.97058156     0.95000
O638        O  0.60021181  0.48573244  0.97843207    -0.81100
O639        O  0.81414607  0.84950194  0.87179251    -0.80500
C640        C  0.80158280  0.78575027  0.94633410     0.98800
O641        O  0.82438052  0.81172232  0.94130733    -0.69700
O642        O  0.85698329  0.81885353  0.90844649    -0.73200
Al643      Al  0.83409908  0.83814502  0.91800341     1.49000
C644        C  0.86380602  0.81895255  0.88991000     0.94100
O645        O  0.78912309  0.76393935  0.88395496    -0.79500
O646        O  0.74386141  0.81021021  0.89905968    -0.73000
Al647      Al  0.80131389  0.80679834  0.87804732     1.90100
O648        O  0.74780354  0.75630622  0.90178059    -0.72100
O649        O  0.76948507  0.82633947  0.93589181    -0.71900
O650        O  0.77596013  0.77465142  0.93698147    -0.77600
O651        O  0.81773021  0.86169277  0.92990058    -0.75800
O652        O  0.79937362  0.81323016  0.90468138    -1.11900
O653        O  0.84932548  0.86883030  0.89663970    -0.71100
C654        C  0.83714405  0.87234264  0.88039355     0.99600
C655        C  0.76439305  0.74598194  0.89385666     0.96000
Al656      Al  0.76235623  0.79364727  0.91736979     1.55600
O657        O  0.84414227  0.81614156  0.87656956    -0.75800
C658        C  0.79209029  0.85319643  0.93871737     1.00100
C659        C  0.74102886  0.80444945  0.88011447     0.95000
O660        O  0.75924284  0.79685176  0.87140658    -0.81100
O661        O  0.39511876  0.49595328  0.05109421    -0.80500
C662        C  0.33189932  0.47633777  0.12653291     0.98800
O663        O  0.35421109  0.47120814  0.12287161    -0.69700
O664        O  0.33948789  0.43573900  0.09094953    -0.73200
Al665      Al  0.37521143  0.47264880  0.09770228     1.49000
C666        C  0.32803559  0.42622381  0.07351506     0.94100
O667        O  0.31368403  0.48357270  0.05831938    -0.79500
O668        O  0.38607040  0.55580187  0.08069466    -0.73000
Al669      Al  0.35492393  0.48980857  0.05675223     1.90100
O670        O  0.32272566  0.51988852  0.08059199    -0.72100
O671        O  0.38958834  0.53423939  0.11608565    -0.71900
O672        O  0.32636598  0.49318733  0.11459964    -0.77600
O673        O  0.41270556  0.50803375  0.10634033    -0.75800
O674        O  0.36215582  0.49525771  0.08365068    -1.11900
O675        O  0.39884671  0.46813619  0.07589598    -0.71100
C676        C  0.40811209  0.48200939  0.05895422     0.99600
C677        C  0.30600290  0.50170849  0.06670073     0.96000
Al678      Al  0.35655543  0.52335771  0.09687432     1.55600
O679        O  0.33597448  0.44452058  0.05818053    -0.75800
C680        C  0.41280348  0.52982020  0.11638016     1.00100
C681        C  0.38661696  0.55778573  0.06147422     0.95000
O682        O  0.37209748  0.53383581  0.05040130    -0.81100
O683        O  0.22082715  0.13797868  0.12920642    -0.80500
C684        C  0.17292343  0.14440436  0.05190917     0.98800
O685        O  0.20146152  0.15300793  0.05539945    -0.69700
O686        O  0.22165943  0.19043184  0.08609926    -0.73200
Al687      Al  0.22295468  0.15429950  0.08070845     1.49000
C688        C  0.21695593  0.20070136  0.10243822     0.94100
O689        O  0.14623939  0.13942712  0.11736485    -0.79500
O690        O  0.15943335  0.07068766  0.09972976    -0.73000
Al691      Al  0.18415938  0.13816719  0.12124195     1.90100
O692        O  0.12360071  0.09830479  0.09838929    -0.72100
O693        O  0.18063318  0.09088075  0.06322321    -0.71900
O694        O  0.15197869  0.12611347  0.06412584    -0.77600
O695        O  0.22879559  0.12038097  0.07299874    -0.75800
O696        O  0.18812244  0.13078374  0.09494886    -1.11900
O697        O  0.25128461  0.16103623  0.10300757    -0.71100
C698        C  0.24758484  0.15114836  0.12126122     0.99600
C699        C  0.12162095  0.11713069  0.11037113     0.96000
Al700      Al  0.15663183  0.09928637  0.08244876     1.55600
O701        O  0.20577573  0.18343124  0.11815050    -0.75800
C702        C  0.20889615  0.09770650  0.06286189     1.00100
C703        C  0.15619223  0.06956630  0.11890873     0.95000
O704        O  0.16162938  0.09378011  0.12900226    -0.81100
O705        O  0.88642296  0.46808227  0.46214397    -0.80500
C706        C  0.84307192  0.47317452  0.38319132     0.98800
O707        O  0.87111400  0.48094467  0.38756537    -0.69700
O708        O  0.89001563  0.51980784  0.41744853    -0.73200
Al709      Al  0.89100931  0.48311766  0.41356457     1.49000
C710        C  0.88467377  0.53082662  0.43322719     0.94100
O711        O  0.81398488  0.47196856  0.44817011    -0.79500
O712        O  0.82501911  0.40096954  0.43341618    -0.73000
Al713      Al  0.85097341  0.46964104  0.45319125     1.90100
O714        O  0.79086446  0.43020174  0.42977445    -0.72100
O715        O  0.84832983  0.41922413  0.39696130    -0.71900
O716        O  0.82101662  0.45581766  0.39511879    -0.77600
O717        O  0.89616113  0.44839125  0.40757331    -0.75800
O718        O  0.85541500  0.46085552  0.42731324    -1.11900
O719        O  0.91830414  0.49024214  0.43650828    -0.71100
C720        C  0.91334407  0.47972960  0.45461693     0.99600
C721        C  0.78920130  0.44941788  0.44159481     0.96000
Al722      Al  0.82392993  0.42928725  0.41484774     1.55600
O723        O  0.87365255  0.51451330  0.44930934    -0.75800
C724        C  0.87650681  0.42564277  0.39739801     1.00100
C725        C  0.82149631  0.40129693  0.45252410     0.95000
O726        O  0.82725253  0.42617307  0.46174641    -0.81100
O727        O  0.06322578  0.81952577  0.38258622    -0.80500
C728        C  0.01009371  0.81645221  0.45949246     0.98800
O729        O  0.02957318  0.80700590  0.45634448    -0.69700
O730        O  0.00947536  0.76812330  0.42623609    -0.73200
Al731      Al  0.04793712  0.80306225  0.43079515     1.49000
C732        C  0.99548565  0.75741919  0.40965089     0.94100
O733        O  0.98742084  0.81756955  0.39412360    -0.79500
O734        O  0.06958002  0.88699773  0.40997883    -0.73000
Al735      Al  0.02631462  0.81904512  0.39000893     1.90100
O736        O  0.00602315  0.86025086  0.41183797    -0.72100
O737        O  0.07172042  0.86806551  0.44660221    -0.71900
O738        O  0.00777586  0.83472634  0.44697488    -0.77600
O739        O  0.08819604  0.83601802  0.43744964    -0.75800
O740        O  0.03765171  0.82716977  0.41615653    -1.11900
O741        O  0.06781633  0.79356600  0.40835786    -0.71100
C742        C  0.07545196  0.80484033  0.39045729     0.99600
C743        C  0.98509192  0.84033357  0.40043227     0.96000
Al744      Al  0.03863827  0.85977559  0.42790910     1.55600
O745        O  0.00345502  0.77391466  0.39347128    -0.75800
C746        C  0.09239716  0.85995447  0.44681724     1.00100
C747        C  0.06660593  0.88743076  0.39086281     0.95000
O748        O  0.04716152  0.86303002  0.38139367    -0.81100
O749        O  0.27876297  0.77143872  0.31033186    -0.80500
C750        C  0.32445294  0.83591559  0.23640437     0.98800
O751        O  0.32625650  0.81215057  0.24162391    -0.69700
O752        O  0.35182470  0.80512483  0.27439574    -0.73200
Al753      Al  0.31024081  0.78396161  0.26413431     1.49000
C754        C  0.35847613  0.80595646  0.29300101     0.94100
O755        O  0.33286410  0.85788905  0.29699229    -0.79500
O756        O  0.24153256  0.80250759  0.28414607    -0.73000
Al757      Al  0.30550660  0.81439562  0.30386584     1.90100
O758        O  0.29560899  0.86055602  0.27982108    -0.72100
O759        O  0.25092129  0.78770175  0.24756943    -0.71900
O760        O  0.30545690  0.84255559  0.24480043    -0.77600
O761        O  0.27181934  0.75806013  0.25107150    -0.75800
O762        O  0.29686192  0.80641093  0.27738885    -1.11900
O763        O  0.29566577  0.75279867  0.28529943    -0.71100
C764        C  0.27931148  0.74890278  0.30130351     0.99600
C765        C  0.32328729  0.87368600  0.28677319     0.96000
Al766      Al  0.27506775  0.82195890  0.26506263     1.55600
O767        O  0.34081741  0.80813361  0.30592844    -0.75800
C768        C  0.25068260  0.76264016  0.24398996     1.00100
C769        C  0.24449760  0.80844209  0.30301134     0.95000
O770        O  0.27144250  0.82136150  0.31075716    -0.81100
O771        O  0.48694840  0.19111212  0.20084211    -0.80500
C772        C  0.47531875  0.14260640  0.28047130     0.98800
O773        O  0.49810549  0.16721721  0.27366398    -0.69700
O774        O  0.52805779  0.16364198  0.24190850    -0.73200
Al775      Al  0.50815499  0.18740387  0.24778440     1.49000
C776        C  0.53409373  0.15957792  0.22384353     0.94100
O777        O  0.45943872  0.10737947  0.21921790    -0.79500
O778        O  0.41857954  0.15942900  0.22837892    -0.73000
Al779      Al  0.47318840  0.14934386  0.21020879     1.90100
O780        O  0.42001690  0.10419868  0.23739717    -0.72100
O781        O  0.44566195  0.18237152  0.26375690    -0.71900
O782        O  0.44964555  0.12978199  0.27111756    -0.77600
O783        O  0.49389860  0.21503378  0.25546247    -0.75800
O784        O  0.47260103  0.16077220  0.23592667    -1.11900
O785        O  0.52463411  0.21280214  0.22381536    -0.71100
C786        C  0.51061580  0.21481448  0.20808460     0.99600
C787        C  0.43504324  0.09163149  0.22999963     0.96000
Al788      Al  0.43629475  0.14526302  0.24905133     1.55600
O789        O  0.51521336  0.15647385  0.20981440    -0.75800
C790        C  0.46885357  0.20943737  0.26415494     1.00100
C791        C  0.41561738  0.15120947  0.20989029     0.95000
O792        O  0.43160819  0.13967942  0.20297864    -0.81100
C793        C  0.39288774  0.94787479  0.26639142     0.13900
C794        C  0.37917266  0.96665537  0.26252071     0.00900
C795        C  0.34814159  0.95572918  0.26885097     0.15900
C796        C  0.33082419  0.92642199  0.27800499     0.25300
C797        C  0.34403401  0.90709280  0.28133032    -0.41100
C798        C  0.37549795  0.91839572  0.27568650     0.32300
C799        C  0.39664105  0.99761451  0.25198106     0.01000
F800        F  0.33437525  0.97348703  0.26602549    -0.13400
F801        F  0.38878222  0.90009274  0.27784279    -0.13900
C802        C  0.38411337  0.00424343  0.23441986     0.15900
C803        C  0.39762995  0.03456255  0.22640435     0.25300
C804        C  0.42440779  0.05873696  0.23541400    -0.41000
C805        C  0.43802869  0.05186225  0.25218573     0.32200
C806        C  0.42429949  0.02164966  0.26040825     0.14000
F807        F  0.35816882  0.98143416  0.22535793    -0.13400
F808        F  0.46356724  0.07491507  0.26145577    -0.13900
F809        F  0.38393600  0.04055980  0.21027300    -0.16200
F810        F  0.43691355  0.01638270  0.27743216    -0.14700
F811        F  0.42263377  0.95739483  0.26026208    -0.14700
F812        F  0.30063931  0.91660166  0.28319850    -0.16100
C813        C  0.19476270  0.80014898  0.34971162     0.13900
C814        C  0.16587265  0.79206645  0.34077416     0.00900
C815        C  0.16202917  0.78686046  0.31957439     0.15900
C816        C  0.18721844  0.79112440  0.30730242     0.25300
C817        C  0.21688847  0.80114862  0.31604499    -0.41100
C818        C  0.22004494  0.80466225  0.33752718     0.32300
C819        C  0.14150888  0.79371675  0.35309265     0.01000
F820        F  0.13406527  0.77860592  0.31068956    -0.13400
F821        F  0.24778207  0.81319835  0.34683169    -0.13900
C822        C  0.13595677  0.81861056  0.34985886     0.15900
C823        C  0.11491455  0.82231980  0.36222492     0.25300
C824        C  0.09868048  0.80099386  0.37812354    -0.41000
C825        C  0.10414322  0.77584144  0.38130481     0.32200
C826        C  0.12552276  0.77230749  0.36888318     0.14000
F827        F  0.15172482  0.83996638  0.33500141    -0.13400
F828        F  0.08835331  0.75435186  0.39606838    -0.13900
F829        F  0.11103368  0.84734762  0.35886066    -0.16200
F830        F  0.13044685  0.74790512  0.37211012    -0.14700
F831        F  0.19896201  0.80540044  0.37017304    -0.14700
F832        F  0.18269540  0.78644698  0.28681200    -0.16100
C833        C  0.95126976  0.67126084  0.39964707     0.13900
C834        C  0.93303247  0.66059474  0.41761448     0.00900
C835        C  0.93187241  0.68220044  0.43090991     0.15900
C836        C  0.95031494  0.71396257  0.42714214     0.25300
C837        C  0.97031350  0.72476368  0.40998662    -0.41100
C838        C  0.96980021  0.70320421  0.39583877     0.32300
C839        C  0.91724978  0.62723868  0.42331364     0.01000
F840        F  0.91373965  0.67249636  0.44799243    -0.13400
F841        F  0.98923491  0.71294965  0.37938010    -0.13900
C842        C  0.92629016  0.61739964  0.44109812     0.15900
C843        C  0.91370843  0.58568823  0.44546062     0.25300
C844        C  0.89207016  0.56348335  0.43204768    -0.41000
C845        C  0.88191434  0.57337222  0.41484645     0.32200
C846        C  0.89433188  0.60497120  0.41054845     0.14000
F847        F  0.94878987  0.63848342  0.45351782    -0.13400
F848        F  0.86078723  0.55224913  0.40172953    -0.13900
F849        F  0.92455376  0.57671420  0.46177622    -0.16200
F850        F  0.88460362  0.61384839  0.39362185    -0.14700
F851        F  0.95286280  0.65078881  0.38657542    -0.14700
F852        F  0.94986694  0.73432883  0.44086612    -0.16100
C853        C  0.32903557  0.16691318  0.13653218     0.13900
C854        C  0.32525014  0.16046405  0.15765763     0.00900
C855        C  0.29633623  0.15193630  0.16681887     0.15900
C856        C  0.27134198  0.14919147  0.15506648     0.25300
C857        C  0.27470349  0.15506597  0.13373784    -0.41100
C858        C  0.30407686  0.16438029  0.12467700     0.32300
C859        C  0.35044859  0.16023143  0.17003558     0.01000
F860        F  0.29195546  0.14514345  0.18714586    -0.13400
F861        F  0.30857454  0.17037626  0.10427289    -0.13900
C862        C  0.36318407  0.17999583  0.18696861     0.15900
C863        C  0.38447481  0.17724715  0.19992405     0.25300
C864        C  0.39334739  0.15459383  0.19617037    -0.41000
C865        C  0.38127177  0.13554837  0.17877221     0.32200
C866        C  0.36001753  0.13832637  0.16590014     0.14000
F867        F  0.35496426  0.20197461  0.19092583    -0.13400
F868        F  0.38920682  0.11344595  0.17451839    -0.13900
F869        F  0.39676415  0.19707773  0.21591916    -0.16200
F870        F  0.34776818  0.11870659  0.14979769    -0.14700
F871        F  0.35691540  0.17550384  0.12736580    -0.14700
F872        F  0.24377523  0.14052937  0.16470914    -0.16100
C873        C  0.25924900  0.34943442  0.08682580     0.13900
C874        C  0.27089971  0.32928303  0.08223418     0.00900
C875        C  0.29902847  0.34076614  0.07116008     0.15900
C876        C  0.31622934  0.37235103  0.06597270     0.25300
C877        C  0.30562909  0.39286393  0.07188799    -0.41100
C878        C  0.27664205  0.38103878  0.08187467     0.32300
C879        C  0.25458031  0.29675944  0.08989713     0.01000
F880        F  0.31043672  0.32160491  0.06612562    -0.13400
F881        F  0.26632033  0.40058912  0.08816466    -0.13900
C882        C  0.22535930  0.27519981  0.08197179     0.15900
C883        C  0.21126777  0.24396912  0.08794468     0.25300
C884        C  0.22586422  0.23382593  0.10220420    -0.41000
C885        C  0.25426200  0.25569683  0.11099542     0.32200
C886        C  0.26857010  0.28693966  0.10484339     0.14000
F887        F  0.21148290  0.28401241  0.06743507    -0.13400
F888        F  0.26942566  0.24632980  0.12416062    -0.13900
F889        F  0.18439595  0.22308100  0.07867541    -0.16200
F890        F  0.29668814  0.30743728  0.11288296    -0.14700
F891        F  0.23208870  0.33889819  0.09737719    -0.14700
F892        F  0.34445003  0.38337037  0.05669934    -0.16100
C893        C  0.72288232  0.60343497  0.92926021     0.13900
C894        C  0.71396575  0.62633717  0.93117096     0.00900
C895        C  0.68844599  0.62041212  0.94384975     0.15900
C896        C  0.67056829  0.59124062  0.95300722     0.25300
C897        C  0.67819023  0.56764153  0.94995370    -0.41100
C898        C  0.70515381  0.57429522  0.93864949     0.32300
C899        C  0.72922689  0.65529447  0.91867856     0.01000
F900        F  0.68000995  0.64251381  0.94659655    -0.13400
F901        F  0.71248964  0.55160733  0.93498720    -0.13900
C902        C  0.71149606  0.66138840  0.90435481     0.15900
C903        C  0.72421543  0.69017115  0.89438893     0.25300
C904        C  0.75507680  0.71326306  0.89826255    -0.41000
C905        C  0.77352613  0.70647930  0.91154979     0.32200
C906        C  0.76067364  0.67769302  0.92171688     0.14000
F907        F  0.68131369  0.63985520  0.90070776    -0.13400
F908        F  0.80294616  0.72883619  0.91629076    -0.13900
F909        F  0.70576885  0.69627211  0.88189908    -0.16200
F910        F  0.77818048  0.67260339  0.93566582    -0.14700
F911        F  0.74726065  0.60844023  0.91702485    -0.14700
F912        F  0.64479201  0.58545216  0.96399874    -0.16100
C913        C  0.47896569  0.50701368  0.02529624     0.13900
C914        C  0.48007293  0.47925128  0.02344192     0.00900
C915        C  0.45848827  0.45283451  0.03443639     0.15900
C916        C  0.43574903  0.45402120  0.04670957     0.25300
C917        C  0.43389179  0.48145203  0.04782718    -0.41100
C918        C  0.45587350  0.50801423  0.03720144     0.32300
C919        C  0.50337348  0.47786683  0.00971793     0.01000
F920        F  0.45865851  0.42556655  0.03265854    -0.13400
F921        F  0.45512836  0.53505504  0.03849407    -0.13900
C922        C  0.52440324  0.46875543  0.01733772     0.15900
C923        C  0.54707517  0.46857162  0.00449659     0.25300
C924        C  0.54913837  0.47752483  0.98378513    -0.41000
C925        C  0.52768687  0.48603525  0.97607405     0.32200
C926        C  0.50502085  0.48621363  0.98893236     0.14000
F927        F  0.52350430  0.46077731  0.03736068    -0.13400
F928        F  0.52930048  0.49520700  0.95626557    -0.13900
F929        F  0.56685771  0.45936091  0.01230494    -0.16200
F930        F  0.48459865  0.49454081  0.98106905    -0.14700
F931        F  0.50036120  0.53323053  0.01559210    -0.14700
F932        F  0.41458894  0.42794834  0.05665662    -0.16100
C933        C  0.99302578  0.49196186  0.47120531     0.13900
C934        C  0.98690836  0.48071960  0.49144017     0.00900
C935        C  0.95683499  0.46937118  0.49951560     0.15900
C936        C  0.93313194  0.46924003  0.48763970     0.25300
C937        C  0.93902974  0.48066813  0.46728394    -0.41100
C938        C  0.96937927  0.49205160  0.45923497     0.32300
C939        C  0.01148239  0.47976525  0.50403393     0.01000
F940        F  0.95017791  0.45756588  0.51883624    -0.13400
F941        F  0.97624498  0.50299097  0.43972499    -0.13900
C942        C  0.02206392  0.49725397  0.52210006     0.15900
C943        C  0.04435468  0.49527428  0.53445566     0.25300
C944        C  0.05641517  0.47570651  0.52891852    -0.41000
C945        C  0.04566467  0.45821289  0.51076653     0.32200
C946        C  0.02344814  0.46026220  0.49847923     0.14000
F947        F  0.01101422  0.51652996  0.52762097    -0.13400
F948        F  0.05604003  0.43843412  0.50511392    -0.13900
F949        F  0.05461152  0.51301806  0.55155146    -0.16200
F950        F  0.01294483  0.44251574  0.48139142    -0.14700
F951        F  0.02199928  0.50297662  0.46307415    -0.14700
F952        F  0.90430099  0.45747596  0.49614841    -0.16100
C953        C  0.04899075  0.33085106  0.56765621     0.13900
C954        C  0.06874776  0.32354519  0.57921834     0.00900
C955        C  0.10110299  0.34445922  0.57896092     0.15900
C956        C  0.11298357  0.37323179  0.56885837     0.25300
C957        C  0.09265609  0.38163839  0.55912648    -0.41100
C958        C  0.06075197  0.35972741  0.55797105     0.32300
C959        C  0.05490653  0.29539402  0.59266870     0.01000
F960        F  0.12089492  0.33819814  0.58986296    -0.13400
F961        F  0.04060664  0.36715736  0.54858876    -0.13900
C962        C  0.06394435  0.27249680  0.59106654     0.15900
C963        C  0.04786053  0.24447851  0.60207192     0.25300
C964        C  0.02227674  0.23878068  0.61462829    -0.41000
C965        C  0.01447561  0.26234060  0.61711021     0.32200
C966        C  0.03091978  0.29051276  0.60653757     0.14000
F967        F  0.08673713  0.27623872  0.57772571    -0.13400
F968        F  0.98971862  0.25736162  0.62895786    -0.13900
F969        F  0.05527295  0.22173694  0.59887033    -0.16200
F970        F  0.02254121  0.31266791  0.60923874    -0.14700
F971        F  0.01789341  0.31055240  0.56660830    -0.14700
F972        F  0.14384070  0.39414601  0.57049182    -0.16100
C973        C  0.87527661  0.15831171  0.68230771     0.13900
C974        C  0.84403965  0.13878046  0.67682085     0.00900
C975        C  0.83737338  0.12210819  0.65842321     0.15900
C976        C  0.86161645  0.12506424  0.64558819     0.25300
C977        C  0.89307748  0.14478168  0.65096596    -0.41100
C978        C  0.89956754  0.16124642  0.66958884     0.32300
C979        C  0.81848225  0.13774799  0.68949548     0.01000
F980        F  0.80729171  0.10318514  0.65279974    -0.13400
F981        F  0.92944835  0.18089826  0.67530533    -0.13900
C982        C  0.80789185  0.15889690  0.68555159     0.15900
C983        C  0.78391056  0.15850122  0.69732433     0.25300
C984        C  0.76986400  0.13682813  0.71344061    -0.41000
C985        C  0.78085795  0.11579354  0.71752372     0.32200
C986        C  0.80492056  0.11623997  0.70559528     0.14000
F987        F  0.82102612  0.18018363  0.67027512    -0.13400
F988        F  0.76803140  0.09446147  0.73279597    -0.13900
F989        F  0.77495481  0.17991660  0.69314207    -0.16200
F990        F  0.81497554  0.09565895  0.70971776    -0.14700
F991        F  0.88223205  0.17503255  0.69986073    -0.14700
F992        F  0.85424394  0.10832105  0.62803404    -0.16100
C993        C  0.63112960  0.82677408  0.83640427     0.13900
C994        C  0.64278716  0.80658746  0.83158857     0.00900
C995        C  0.63072918  0.78719624  0.81435779     0.15900
C996        C  0.60803548  0.78843571  0.80202547     0.25300
C997        C  0.59647934  0.80853615  0.80692212    -0.41100
C998        C  0.60787470  0.82742927  0.82430511     0.32300
C999        C  0.66789383  0.80618268  0.84420523     0.01000
F1000       F  0.64041758  0.76651395  0.80972719    -0.13400
F1001       F  0.59682793  0.84688962  0.82933904    -0.13900
C1002       C  0.66450438  0.80151840  0.86556363     0.15900
C1003       C  0.68838008  0.80146152  0.87733546     0.25300
C1004       C  0.71601197  0.80563923  0.86795116    -0.41000
C1005       C  0.71920918  0.81007616  0.84654683     0.32200
C1006       C  0.69556654  0.81056249  0.83487615     0.14000
F1007       F  0.63767593  0.79616385  0.87498830    -0.13400
F1008       F  0.74552760  0.81449969  0.83683758    -0.13900
F1009       F  0.68396648  0.79630893  0.89782438    -0.16200
F1010       F  0.70000885  0.81590351  0.81440089    -0.14700
F1011       F  0.64273166  0.84634059  0.85257696    -0.14700
F1012       F  0.59654834  0.76925558  0.78564425    -0.16100
C1013       C  0.55980894  0.93522582  0.74875851     0.13900
C1014       C  0.58308383  0.95650518  0.76173554     0.00900
C1015       C  0.58993923  0.94594470  0.78004293     0.15900
C1016       C  0.57484075  0.91411873  0.78470101     0.25300
C1017       C  0.55311531  0.89265228  0.77092796    -0.41100
C1018       C  0.54502574  0.90353368  0.75326099     0.32300
C1019       C  0.60224125  0.98910923  0.75505139     0.01000
F1020       F  0.61243307  0.96629542  0.79278920    -0.13400
F1021       F  0.52403736  0.88319330  0.73973230    -0.13900
C1022       C  0.59197737  0.01071389  0.75823754     0.15900
C1023       C  0.61104444  0.04186853  0.75265090     0.25300
C1024       C  0.64032589  0.05160889  0.74353324    -0.41000
C1025       C  0.65001215  0.02971244  0.73965224     0.32200
C1026       C  0.63105509  0.99863607  0.74533010     0.14000
F1027       F  0.56421126  0.00188693  0.76763052    -0.13400
F1028       F  0.67879748  0.03890617  0.73170602    -0.13900
F1029       F  0.60194711  0.06296242  0.75740474    -0.16200
F1030       F  0.64128576  0.97800057  0.74205979    -0.14700
F1031       F  0.55287864  0.94501897  0.73105109    -0.14700
F1032       F  0.58343222  0.90412349  0.80163035    -0.16100
C1033       C  0.23443084  0.62435756  0.53279314     0.13900
C1034       C  0.21556225  0.63841530  0.53354484     0.00900
C1035       C  0.18291285  0.61948758  0.53438591     0.15900
C1036       C  0.16948705  0.58705377  0.53548296     0.25300
C1037       C  0.18859959  0.57325527  0.53602090    -0.41100
C1038       C  0.22108476  0.59212396  0.53414759     0.32300
C1039       C  0.23058638  0.67265852  0.53567368     0.01000
F1040       F  0.16419132  0.63249385  0.53508696    -0.13400
F1041       F  0.24004683  0.57936012  0.53489225    -0.13900
C1042       C  0.25152346  0.69224401  0.52066454     0.15900
C1043       C  0.27086341  0.72388633  0.52455500     0.25300
C1044       C  0.26985299  0.73654322  0.54370042    -0.41000
C1045       C  0.24707774  0.71729743  0.55808305     0.32200
C1046       C  0.22762647  0.68567123  0.55408432     0.14000
F1047       F  0.25452058  0.68030539  0.50264902    -0.13400
F1048       F  0.24475084  0.72867075  0.57650785    -0.13900
F1049       F  0.29234750  0.74143762  0.51017607    -0.16200
F1050       F  0.20763355  0.66727747  0.56889742    -0.14700
F1051       F  0.26602401  0.64200802  0.53235302    -0.14700
F1052       F  0.13811143  0.56937296  0.53788269    -0.16100
C1053       C  0.43577966  0.80067742  0.63812230     0.13900
C1054       C  0.45685208  0.82773795  0.64838938     0.00900
C1055       C  0.46129431  0.85655461  0.64146630     0.15900
C1056       C  0.44428062  0.85820935  0.62469354     0.25300
C1057       C  0.42234804  0.83093840  0.61466457    -0.41100
C1058       C  0.41873369  0.80215139  0.62146746     0.32300
C1059       C  0.47191841  0.82513759  0.66734000     0.01000
F1060       F  0.48161880  0.88299580  0.65126377    -0.13400
F1061       F  0.39731174  0.77500860  0.61287685    -0.13900
C1062       C  0.49472928  0.81583838  0.66652560     0.15900
C1063       C  0.50586190  0.80935307  0.68462195     0.25300
C1064       C  0.49370025  0.81137376  0.70368758    -0.41000
C1065       C  0.47148505  0.82145546  0.70447702     0.32200
C1066       C  0.46085912  0.82851009  0.68645359     0.14000
F1067       F  0.50533271  0.81199846  0.64816259    -0.13400
F1068       F  0.45963766  0.82389598  0.72274437    -0.13900
F1069       F  0.52694484  0.79918161  0.68344788    -0.16200
F1070       F  0.43850552  0.83703025  0.68757739    -0.14700
F1071       F  0.43038644  0.77250133  0.64500149    -0.14700
F1072       F  0.44874318  0.88640216  0.61864955    -0.16100
C1073       C  0.09089316  0.05511493  0.64796837     0.13900
C1074       C  0.10957486  0.08698690  0.64378860     0.00900
C1075       C  0.14179921  0.09915057  0.64061294     0.15900
C1076       C  0.15468419  0.07934270  0.64015148     0.25300
C1077       C  0.13536604  0.04712661  0.64247387    -0.41100
C1078       C  0.10363292  0.03530042  0.64707331     0.32300
C1079       C  0.09432441  0.10601924  0.63981098     0.01000
F1080       F  0.16037021  0.12988765  0.63676376    -0.13400
F1081       F  0.08458191  0.00424410  0.64930739    -0.13900
C1082       C  0.07766132  0.11114501  0.65533325     0.15900
C1083       C  0.05787931  0.12322045  0.65058702     0.25300
C1084       C  0.05394651  0.12992869  0.63006001    -0.41000
C1085       C  0.07267606  0.12701435  0.61479900     0.32200
C1086       C  0.09265058  0.11521416  0.61966223     0.14000
F1087       F  0.07939325  0.10299798  0.67498333    -0.13400
F1088       F  0.07044325  0.13387843  0.59492366    -0.13900
F1089       F  0.04108807  0.12634533  0.66600102    -0.16200
F1090       F  0.10858725  0.11051117  0.60436768    -0.14700
F1091       F  0.05972770  0.04277230  0.65112978    -0.14700
F1092       F  0.18535606  0.09120446  0.63538568    -0.16100
C1093       C  0.22075600  0.90646829  0.59216815     0.13900
C1094       C  0.25264184  0.91540027  0.59319485     0.00900
C1095       C  0.27238379  0.94058167  0.60568056     0.15900
C1096       C  0.26101739  0.95800414  0.61567920     0.25300
C1097       C  0.22954398  0.95017528  0.61376786    -0.41100
C1098       C  0.20926462  0.92372426  0.60242714     0.32300
C1099       C  0.26616841  0.90022982  0.58028009     0.01000
F1100       F  0.30306683  0.94906099  0.60749749    -0.13400
F1101       F  0.17905347  0.91644376  0.59961731    -0.13900
C1102       C  0.28967713  0.91803903  0.56594700     0.15900
C1103       C  0.30630531  0.90558966  0.55609823     0.25300
C1104       C  0.29928619  0.87494023  0.56005782    -0.41000
C1105       C  0.27419209  0.85631320  0.57315668     0.32200
C1106       C  0.25776613  0.86890592  0.58326141     0.14000
F1107       F  0.29754966  0.94805127  0.56226150    -0.13400
F1108       F  0.26771896  0.82693687  0.57777502    -0.13900
F1109       F  0.33056255  0.92401508  0.54362012    -0.16200
F1110       F  0.23540030  0.85128006  0.59714395    -0.14700
F1111       F  0.20127178  0.88248694  0.58005134    -0.14700
F1112       F  0.28110971  0.98354443  0.62639687    -0.16100
C1113       C  0.14637820  0.91396187  0.52884693     0.13900
C1114       C  0.16827856  0.92555955  0.51277403     0.00900
C1115       C  0.19623088  0.95363754  0.51544683     0.15900
C1116       C  0.20148444  0.97053602  0.53360214     0.25300
C1117       C  0.17857081  0.95975192  0.54907595    -0.41100
C1118       C  0.15143159  0.93096036  0.54678142     0.32300
C1119       C  0.15888791  0.91073782  0.49244341     0.01000
F1120       F  0.21770752  0.96527947  0.50013873    -0.13400
F1121       F  0.12936713  0.91962252  0.56175029    -0.13900
C1122       C  0.15312281  0.92663168  0.47663479     0.15900
C1123       C  0.13377976  0.91019161  0.46033061     0.25300
C1124       C  0.12027022  0.87775835  0.45951511    -0.41000
C1125       C  0.12946348  0.86243406  0.47377645     0.32200
C1126       C  0.14863969  0.87888140  0.49023978     0.14000
F1127       F  0.16310605  0.95747028  0.47819449    -0.13400
F1128       F  0.11698405  0.83112423  0.47317810    -0.13900
F1129       F  0.12609896  0.92560360  0.44624900    -0.16200
F1130       F  0.15467607  0.86324266  0.50508678    -0.14700
F1131       F  0.11894085  0.88717441  0.52658522    -0.14700
F1132       F  0.22790071  0.99836261  0.53547369    -0.16100
C1133       C  0.57393302  0.15991645  0.71764984     0.13900
C1134       C  0.57579648  0.18793752  0.72409453     0.00900
C1135       C  0.60173128  0.20869660  0.73563892     0.15900
C1136       C  0.62553033  0.20211090  0.74037985     0.25300
C1137       C  0.62404943  0.17414473  0.73397373    -0.41100
C1138       C  0.59787152  0.15308733  0.72248917     0.32300
C1139       C  0.55033367  0.19546129  0.72021587     0.01000
F1140       F  0.60371519  0.23531206  0.74290369    -0.13400
F1141       F  0.59529769  0.12588532  0.71599308    -0.13900
C1142       C  0.52041351  0.17654100  0.72847727     0.15900
C1143       C  0.49926987  0.18774646  0.73014492     0.25300
C1144       C  0.50761896  0.21801636  0.72356052    -0.41000
C1145       C  0.53617211  0.23560559  0.71330434     0.32200
C1146       C  0.55731870  0.22436528  0.71158775     0.14000
F1147       F  0.51282370  0.14856213  0.73690567    -0.13400
F1148       F  0.54525658  0.26513814  0.70724534    -0.13900
F1149       F  0.47166334  0.17010436  0.73993350    -0.16200
F1150       F  0.58579607  0.24288486  0.70309487    -0.14700
F1151       F  0.54907821  0.13929206  0.70654256    -0.14700
F1152       F  0.65017723  0.22357483  0.75127070    -0.16100
C1153       C  0.35660191  0.17786281  0.67807454     0.13900
C1154       C  0.32838181  0.15418433  0.68607894     0.00900
C1155       C  0.32241594  0.15405532  0.70719439     0.15900
C1156       C  0.34472777  0.17653145  0.72018169     0.25300
C1157       C  0.37352491  0.19963908  0.71229825    -0.41100
C1158       C  0.37886617  0.20034936  0.69097204     0.32300
C1159       C  0.30605725  0.12867788  0.67264187     0.01000
F1160       F  0.29498824  0.13190147  0.71528124    -0.13400
F1161       F  0.40581318  0.22274631  0.68247867    -0.13900
C1162       C  0.29765006  0.09777464  0.67727949     0.15900
C1163       C  0.27681595  0.07352679  0.66478033     0.25300
C1164       C  0.26409468  0.07961772  0.64716194    -0.41000
C1165       C  0.27302735  0.11065316  0.64224907     0.32200
C1166       C  0.29370044  0.13492969  0.65492516     0.14000
F1167       F  0.31019772  0.09108604  0.69376119    -0.13400
F1168       F  0.26104214  0.11748529  0.62553055    -0.13900
F1169       F  0.26959212  0.04405562  0.66975776    -0.16200
F1170       F  0.30112158  0.16451242  0.65013253    -0.14700
F1171       F  0.36319699  0.17857335  0.65780819    -0.14700
F1172       F  0.33850054  0.17495856  0.74054922    -0.16100
C1173       C  0.46129382  0.33141111  0.84452166     0.13900
C1174       C  0.48908217  0.33792923  0.85467928     0.00900
C1175       C  0.50753378  0.32584197  0.84693771     0.15900
C1176       C  0.49890370  0.30817362  0.82912971     0.25300
C1177       C  0.47146444  0.30200047  0.81861867    -0.41100
C1178       C  0.45235071  0.31327332  0.82666621     0.32300
C1179       C  0.50085978  0.35917349  0.87241687     0.01000
F1180       F  0.53474024  0.33221096  0.85625226    -0.13400
F1181       F  0.42584528  0.30788974  0.81681184    -0.13900
C1182       C  0.50671450  0.34870345  0.89106320     0.15900
C1183       C  0.52600627  0.36994422  0.90575959     0.25300
C1184       C  0.53974967  0.40209406  0.90205798    -0.41000
C1185       C  0.53122470  0.41240329  0.88427306     0.32200
C1186       C  0.51201033  0.39106343  0.86953658     0.14000
F1187       F  0.49556800  0.31791124  0.89436746    -0.13400
F1188       F  0.54387762  0.44317584  0.88012932    -0.13900
F1189       F  0.53269252  0.35903825  0.92306671    -0.16200
F1190       F  0.50684642  0.40174322  0.85157779    -0.14700
F1191       F  0.44312349  0.34289351  0.85176544    -0.14700
F1192       F  0.51758622  0.29711567  0.82212929    -0.16100
C1193       C  0.40064133  0.57856045  0.80831679     0.13900
C1194       C  0.39882890  0.60493217  0.80220701     0.00900
C1195       C  0.37427675  0.60120554  0.78939747     0.15900
C1196       C  0.35169574  0.57182738  0.78307100     0.25300
C1197       C  0.35324374  0.54517775  0.78912004    -0.41100
C1198       C  0.37807010  0.54891004  0.80183009     0.32300
C1199       C  0.42367861  0.63678002  0.80726724     0.01000
F1200       F  0.37264373  0.62627444  0.78237099    -0.13400
F1201       F  0.38069038  0.52400313  0.80791894    -0.13900
C1202       C  0.45428512  0.64722444  0.80028540     0.15900
C1203       C  0.47514969  0.67899174  0.79866340     0.25300
C1204       C  0.46554487  0.70065204  0.80369855    -0.41000
C1205       C  0.43653580  0.69032666  0.81330537     0.32200
C1206       C  0.41573393  0.65848332  0.81517746     0.14000
F1207       F  0.46273945  0.62695612  0.79256560    -0.13400
F1208       F  0.42656641  0.71074402  0.81810121    -0.13900
F1209       F  0.50341292  0.68860871  0.78973709    -0.16200
F1210       F  0.38658028  0.64888217  0.82260625    -0.14700
F1211       F  0.42425562  0.58152582  0.82057408    -0.14700
F1212       F  0.32825973  0.56975613  0.77097491    -0.16100
C1213       C  0.38735888  0.41154343  0.76006433     0.13900
C1214       C  0.37856084  0.38166051  0.76739015     0.00900
C1215       C  0.35381607  0.36749989  0.78152370     0.15900
C1216       C  0.33658199  0.38208049  0.78703652     0.25300
C1217       C  0.34375792  0.41084422  0.77834127    -0.41100
C1218       C  0.36989669  0.42591885  0.76535617     0.32300
C1219       C  0.39324954  0.36411989  0.75895169     0.01000
F1220       F  0.34524434  0.33875974  0.78902089    -0.13400
F1221       F  0.37685740  0.45344430  0.75644726    -0.13900
C1222       C  0.42300146  0.37045946  0.76543513     0.15900
C1223       C  0.43519317  0.35150698  0.75911084     0.25300
C1224       C  0.41800047  0.32623849  0.74601075    -0.41000
C1225       C  0.38912142  0.32111158  0.73849537     0.32200
C1226       C  0.37679598  0.33993085  0.74494630     0.14000
F1227       F  0.43927380  0.39366789  0.77894757    -0.13400
F1228       F  0.37170806  0.29629131  0.72636648    -0.13900
F1229       F  0.46272603  0.35624195  0.76705409    -0.16200
F1230       F  0.34811915  0.33367100  0.73830882    -0.14700
F1231       F  0.41133520  0.42571534  0.74654941    -0.14700
F1232       F  0.31101070  0.36675258  0.79918487    -0.16100
C1233       C  0.17295457  0.39008390  0.68892481     0.13900
C1234       C  0.16443037  0.41274894  0.68436223     0.00900
C1235       C  0.17108290  0.43649862  0.69849003     0.15900
C1236       C  0.18842104  0.43922225  0.71600944     0.25300
C1237       C  0.19946506  0.41825665  0.71970821    -0.41100
C1238       C  0.19018781  0.39265371  0.70665615     0.32300
C1239       C  0.15417871  0.41568067  0.66359644     0.01000
F1240       F  0.16357923  0.45896050  0.69425471    -0.13400
F1241       F  0.20044593  0.37201228  0.70990082    -0.13900
C1242       C  0.12542511  0.41478068  0.66061559     0.15900
C1243       C  0.11934926  0.42547873  0.64219785     0.25300
C1244       C  0.14229210  0.43781503  0.62678634    -0.41000
C1245       C  0.17015601  0.43674438  0.62928664     0.32200
C1246       C  0.17597113  0.42558747  0.64749806     0.14000
F1247       F  0.10415192  0.40541190  0.67604050    -0.13400
F1248       F  0.19234524  0.44774164  0.61439031    -0.13900
F1249       F  0.09224331  0.42623209  0.64013812    -0.16200
F1250       F  0.20405478  0.42698437  0.65009059    -0.14700
F1251       F  0.16649970  0.36681330  0.67549931    -0.14700
F1252       F  0.19654530  0.46385127  0.72857046    -0.16100
C1253       C  0.75188591  0.39105602  0.97248821     0.13900
C1254       C  0.76931129  0.42305396  0.96842562     0.00900
C1255       C  0.80168734  0.43678201  0.96529337     0.15900
C1256       C  0.81623611  0.41845144  0.96552642     0.25300
C1257       C  0.79844905  0.38622153  0.96859497    -0.41100
C1258       C  0.76628690  0.37275087  0.97236148     0.32300
C1259       C  0.75261843  0.44085558  0.96566001     0.01000
F1260       F  0.81884399  0.46756946  0.96106734    -0.13400
F1261       F  0.74847530  0.34149813  0.97447404    -0.13900
C1262       C  0.73639413  0.44436047  0.98216449     0.15900
C1263       C  0.71444902  0.45412243  0.97882268     0.25300
C1264       C  0.70795570  0.46008797  0.95874258    -0.41000
C1265       C  0.72645689  0.45933888  0.94246691     0.32200
C1266       C  0.74859494  0.44976800  0.94592565     0.14000
F1267       F  0.74040823  0.43637992  0.00140382    -0.13400
F1268       F  0.72198629  0.46617852  0.92301285    -0.13900
F1269       F  0.69797727  0.45537754  0.99514106    -0.16200
F1270       F  0.76429492  0.44681595  0.92974204    -0.14700
F1271       F  0.72044875  0.37717704  0.97502934    -0.14700
F1272       F  0.84707053  0.43163018  0.96086319    -0.16100
C1273       C  0.81172160  0.20340620  0.82923011     0.13900
C1274       C  0.82382497  0.23563903  0.83083011     0.00900
C1275       C  0.81874079  0.25180416  0.81488573     0.15900
C1276       C  0.79918700  0.23564019  0.79864035     0.25300
C1277       C  0.78486417  0.20317558  0.79795209    -0.41100
C1278       C  0.79247032  0.18722705  0.81273042     0.32300
C1279       C  0.83469194  0.25138771  0.85069326     0.01000
F1280       F  0.82973082  0.28285211  0.81626585    -0.13400
F1281       F  0.77849687  0.15576818  0.81246328    -0.13900
C1282       C  0.86406385  0.27813940  0.85249970     0.15900
C1283       C  0.87036806  0.29809994  0.86917370     0.25300
C1284       C  0.84704391  0.29168962  0.88385830    -0.41000
C1285       C  0.81878709  0.26358431  0.88291559     0.32200
C1286       C  0.81271240  0.24351245  0.86652777     0.14000
F1287       F  0.88571273  0.28587730  0.83743875    -0.13400
F1288       F  0.79647976  0.25613124  0.89749204    -0.13900
F1289       F  0.89815812  0.32476785  0.87007766    -0.16200
F1290       F  0.78415176  0.21780679  0.86515794    -0.14700
F1291       F  0.81625928  0.18738207  0.84454755    -0.14700
F1292       F  0.79224920  0.25144597  0.78440974    -0.16100
C1293       C  0.17329023  0.34601268  0.83177166     0.13900
C1294       C  0.16784902  0.31560369  0.82948075     0.00900
C1295       C  0.18559226  0.30946159  0.81527289     0.15900
C1296       C  0.20847848  0.33355429  0.80338141     0.25300
C1297       C  0.21381737  0.36409277  0.80557041    -0.41100
C1298       C  0.19597037  0.37002258  0.81993442     0.32300
C1299       C  0.14248468  0.29027167  0.84128380     0.01000
F1300       F  0.18094802  0.28019574  0.81313253    -0.13400
F1301       F  0.19987842  0.39901380  0.82219822    -0.13900
C1302       C  0.11528172  0.26866330  0.83125885     0.15900
C1303       C  0.09002976  0.24614632  0.84245038     0.25300
C1304       C  0.09158968  0.24470967  0.86399763    -0.41000
C1305       C  0.11924332  0.26635370  0.87396551     0.32200
C1306       C  0.14436270  0.28896913  0.86267879     0.14000
F1307       F  0.11282952  0.27003697  0.81060485    -0.13400
F1308       F  0.12196732  0.26607348  0.89465974    -0.13900
F1309       F  0.06401759  0.22595735  0.83208481    -0.16200
F1310       F  0.17053610  0.30978289  0.87264373    -0.14700
F1311       F  0.15598790  0.35230519  0.84515464    -0.14700
F1312       F  0.22586936  0.32715317  0.79015569    -0.16100
C1313       C  0.91744511  0.02334444  0.85667747     0.13900
C1314       C  0.89521297  0.00384544  0.87113227     0.00900
C1315       C  0.89148499  0.01691226  0.88931386     0.15900
C1316       C  0.91119465  0.04842390  0.89363652     0.25300
C1317       C  0.93480404  0.06758382  0.87974637    -0.41100
C1318       C  0.93692468  0.05489438  0.86085559     0.32300
C1319       C  0.87934927  0.96951494  0.86881449     0.01000
F1320       F  0.87023216  0.99865089  0.90359159    -0.13400
F1321       F  0.95952921  0.07235295  0.84704957    -0.13900
C1322       C  0.89739944  0.95454645  0.86856084     0.15900
C1323       C  0.88314500  0.92227398  0.87039476     0.25300
C1324       C  0.85055713  0.90424692  0.87227264    -0.41000
C1325       C  0.83224036  0.91884188  0.87086357     0.32200
C1326       C  0.84657042  0.95132937  0.86925195     0.14000
F1327       F  0.92905875  0.97136367  0.86823466    -0.13400
F1328       F  0.80074187  0.90196496  0.87291754    -0.13900
F1329       F  0.90133415  0.90868640  0.87167752    -0.16200
F1330       F  0.82856575  0.96514562  0.86910706    -0.14700
F1331       F  0.92136555  0.01144816  0.83891080    -0.14700
F1332       F  0.90798498  0.05989282  0.91178500    -0.16100
C1333       C  0.88107461  0.24173336  0.92464541     0.13900
C1334       C  0.91260169  0.24920282  0.92589247     0.00900
C1335       C  0.93268294  0.27358616  0.93881837     0.15900
C1336       C  0.92213807  0.29149129  0.94914570     0.25300
C1337       C  0.89109364  0.28513901  0.94713583    -0.41100
C1338       C  0.87038934  0.25953735  0.93522232     0.32300
C1339       C  0.92559419  0.23330296  0.91298138     0.01000
F1340       F  0.96302443  0.28087236  0.94079189    -0.13400
F1341       F  0.84063608  0.25363951  0.93222579    -0.13900
C1342       C  0.94990484  0.25077002  0.89904793     0.15900
C1343       C  0.96654220  0.23783797  0.88971835     0.25300
C1344       C  0.95886747  0.20696682  0.89375520    -0.41000
C1345       C  0.93296871  0.18868577  0.90640097     0.32200
C1346       C  0.91644066  0.20175746  0.91594755     0.14000
F1347       F  0.95866330  0.28099907  0.89534525    -0.13400
F1348       F  0.92574792  0.15916025  0.91121251    -0.13900
F1349       F  0.99159269  0.25611179  0.87777184    -0.16200
F1350       F  0.89321868  0.18433522  0.92937464    -0.14700
F1351       F  0.86121399  0.21866338  0.91207796    -0.14700
F1352       F  0.94277271  0.31624957  0.96026227    -0.16100
C1353       C  0.12608954  0.20005635  0.97535028     0.13900
C1354       C  0.13398046  0.17643987  0.97641642     0.00900
C1355       C  0.12458964  0.15444349  0.96068652     0.15900
C1356       C  0.10483855  0.15409963  0.94516483     0.25300
C1357       C  0.09396880  0.17573292  0.94525112    -0.41100
C1358       C  0.10634149  0.19986058  0.95983701     0.32300
C1359       C  0.14488494  0.17008752  0.99594175     0.01000
F1360       F  0.13254260  0.13174175  0.96133865    -0.13400
F1361       F  0.09747562  0.22189897  0.96016785    -0.13900
C1362       C  0.12282350  0.14682636  0.00868254     0.15900
C1363       C  0.13188113  0.13907978  0.02697961     0.25300
C1364       C  0.16350335  0.15443222  0.03298434    -0.41000
C1365       C  0.18559989  0.17853479  0.02039787     0.32200
C1366       C  0.17626495  0.18634268  0.00198957     0.14000
F1367       F  0.09223899  0.13135782  0.00324008    -0.13400
F1368       F  0.21613230  0.19456717  0.02586079    -0.13900
F1369       F  0.10951864  0.11593594  0.03851600    -0.16200
F1370       F  0.19780549  0.20935979  0.98997243    -0.14700
F1371       F  0.13519333  0.22164969  0.99038900    -0.14700
F1372       F  0.09497212  0.13145089  0.93080218    -0.16100
C1373       C  0.40918484  0.78666260  0.32752836     0.13900
C1374       C  0.42380015  0.77687263  0.31321088     0.00900
C1375       C  0.42011641  0.78066808  0.29222618     0.15900
C1376       C  0.40076427  0.79236562  0.28559165     0.25300
C1377       C  0.38452234  0.80060042  0.29986116    -0.41100
C1378       C  0.38997453  0.79865629  0.32097329     0.32300
C1379       C  0.44002785  0.75955034  0.31969112     0.01000
F1380       F  0.43360552  0.77096277  0.27805082    -0.13400
F1381       F  0.37551366  0.80686817  0.33540340    -0.13900
C1382       C  0.42246556  0.72898537  0.32711696     0.15900
C1383       C  0.43558119  0.70941136  0.32786526     0.25300
C1384       C  0.46658856  0.72024015  0.32156873    -0.41000
C1385       C  0.48514304  0.75177939  0.31641673     0.32200
C1386       C  0.47187062  0.77123060  0.31529225     0.14000
F1387       F  0.39166904  0.71707406  0.33148467    -0.13400
F1388       F  0.51491007  0.76264109  0.30976646    -0.13900
F1389       F  0.41704268  0.67893115  0.33254220    -0.16200
F1390       F  0.48939550  0.80072868  0.30825980    -0.14700
F1391       F  0.41265952  0.78358889  0.34789436    -0.14700
F1392       F  0.39649204  0.79369483  0.26513789    -0.16100
C1393       C  0.46047482  0.55692492  0.16406762     0.13900
C1394       C  0.47324075  0.58917290  0.16191806     0.00900
C1395       C  0.47130288  0.60163387  0.14297072     0.15900
C1396       C  0.45407330  0.58191215  0.12700341     0.25300
C1397       C  0.43893413  0.54960151  0.12978535    -0.41100
C1398       C  0.44345747  0.53718179  0.14801162     0.32300
C1399       C  0.48171240  0.60866096  0.18039032     0.01000
F1400       F  0.48369712  0.63276770  0.14060396    -0.13400
F1401       F  0.42837164  0.50600840  0.15113523    -0.13900
C1402       C  0.51107888  0.62039158  0.18957640     0.15900
C1403       C  0.51763126  0.63730757  0.20783476     0.25300
C1404       C  0.49464949  0.64241418  0.21729010    -0.41000
C1405       C  0.46538255  0.63093685  0.20759022     0.32200
C1406       C  0.45911856  0.61433385  0.18936916     0.14000
F1407       F  0.53328345  0.61531757  0.18091999    -0.13400
F1408       F  0.44246763  0.63540112  0.21572985    -0.13900
F1409       F  0.54634402  0.64833780  0.21626005    -0.16200
F1410       F  0.43054077  0.60310456  0.18061226    -0.14700
F1411       F  0.46171709  0.54451701  0.18240665    -0.14700
F1412       F  0.44998881  0.59425295  0.10942323    -0.16100
C1413       C  0.51609635  0.29248958  0.20321015     0.13900
C1414       C  0.54840160  0.31145651  0.20027119     0.00900
C1415       C  0.56666024  0.29759542  0.19549858     0.15900
C1416       C  0.55334711  0.26525141  0.19552364     0.25300
C1417       C  0.52146183  0.24625906  0.19990161    -0.41100
C1418       C  0.50264341  0.26006276  0.20281524     0.32300
C1419       C  0.56401071  0.34512592  0.20490033     0.01000
F1420       F  0.59794998  0.31540094  0.19271848    -0.13400
F1421       F  0.47196930  0.24223901  0.20765865    -0.13900
C1422       C  0.56671120  0.35498266  0.22532558     0.15900
C1423       C  0.58624530  0.38618943  0.23041392     0.25300
C1424       C  0.60349316  0.40827828  0.21510757    -0.41000
C1425       C  0.59878886  0.39856228  0.19444348     0.32200
C1426       C  0.57947137  0.36726243  0.18946374     0.14000
F1427       F  0.55213164  0.33394124  0.24055642    -0.13400
F1428       F  0.61451447  0.41884584  0.17905939    -0.13900
F1429       F  0.58952492  0.39433984  0.25047576    -0.16200
F1430       F  0.57697319  0.35828365  0.16960764    -0.14700
F1431       F  0.49801006  0.30536828  0.20781419    -0.14700
F1432       F  0.57208209  0.25246694  0.19305792    -0.16100
C1433       C  0.62454491  0.57649913  0.26330131     0.13900
C1434       C  0.59713057  0.57025984  0.25298425     0.00900
C1435       C  0.58953299  0.55286816  0.23475764     0.15900
C1436       C  0.60922053  0.54196237  0.22702475     0.25300
C1437       C  0.63735872  0.54913761  0.23707212    -0.41100
C1438       C  0.64444231  0.56633364  0.25548536     0.32300
C1439       C  0.57997285  0.58654782  0.25970110     0.01000
F1440       F  0.56347550  0.54715089  0.22419838    -0.13400
F1441       F  0.67085892  0.57362033  0.26613759    -0.13900
C1442       C  0.58811131  0.61531063  0.25084077     0.15900
C1443       C  0.57684246  0.63405471  0.25887626     0.25300
C1444       C  0.55648492  0.62446471  0.27606790    -0.41000
C1445       C  0.54727041  0.59488348  0.28450083     0.32200
C1446       C  0.55930738  0.57629289  0.27655497     0.14000
F1447       F  0.60835247  0.62600861  0.23479472    -0.13400
F1448       F  0.52747086  0.58434207  0.30074598    -0.13900
F1449       F  0.58648705  0.66200259  0.24970903    -0.16200
F1450       F  0.55134647  0.54859952  0.28555842    -0.14700
F1451       F  0.63283278  0.59380888  0.28063800    -0.14700
F1452       F  0.60132722  0.52544417  0.20937497    -0.16100
C1453       C  0.84702173  0.49751052  0.32751873     0.13900
C1454       C  0.81901916  0.49831819  0.32570506     0.00900
C1455       C  0.79997491  0.49267884  0.34297657     0.15900
C1456       C  0.80821010  0.48527770  0.36176908     0.25300
C1457       C  0.83583251  0.48352692  0.36365054    -0.41100
C1458       C  0.85556039  0.49039725  0.34642664     0.32300
C1459       C  0.80768515  0.50246766  0.30570349     0.01000
F1460       F  0.77272836  0.49330291  0.34140731    -0.13400
F1461       F  0.88236465  0.48888391  0.34761773    -0.13900
C1462       C  0.79061625  0.47653722  0.29324303     0.15900
C1463       C  0.77184689  0.47763884  0.27754877     0.25300
C1464       C  0.76968637  0.50477058  0.27425597    -0.41000
C1465       C  0.78983251  0.53180571  0.28527652     0.32200
C1466       C  0.80846162  0.53050665  0.30101271     0.14000
F1467       F  0.78993673  0.44930158  0.29749160    -0.13400
F1468       F  0.78998446  0.55899234  0.28188306    -0.13900
F1469       F  0.75403382  0.45136942  0.26673772    -0.16200
F1470       F  0.82551755  0.55600775  0.31267447    -0.14700
F1471       F  0.86564983  0.50292263  0.31090599    -0.14700
F1472       F  0.78897472  0.47961120  0.37808666    -0.16100
C1473       C  0.84087281  0.67911261  0.15862422     0.13900
C1474       C  0.83610157  0.64895706  0.15594659     0.00900
C1475       C  0.85438201  0.64392667  0.14149539     0.15900
C1476       C  0.87792731  0.66899247  0.13048385     0.25300
C1477       C  0.88356463  0.69947747  0.13383892    -0.41100
C1478       C  0.86425006  0.70405022  0.14775001     0.32300
C1479       C  0.81255185  0.62339420  0.16887742     0.01000
F1480       F  0.85007136  0.61493013  0.13851127    -0.13400
F1481       F  0.86761992  0.73271337  0.15069199    -0.13900
C1482       C  0.78556390  0.59896516  0.16023204     0.15900
C1483       C  0.76163280  0.57725505  0.17285809     0.25300
C1484       C  0.76432381  0.57954224  0.19441366    -0.41000
C1485       C  0.79214638  0.60322182  0.20293224     0.32200
C1486       C  0.81588035  0.62492161  0.19029167     0.14000
F1487       F  0.78186680  0.59679664  0.13958000    -0.13400
F1488       F  0.79609574  0.60611845  0.22354720    -0.13900
F1489       F  0.73583670  0.55402180  0.16393433    -0.16200
F1490       F  0.84207571  0.64793481  0.19899445    -0.14700
F1491       F  0.82264304  0.68439387  0.17182583    -0.14700
F1492       F  0.89576218  0.66353191  0.11705752    -0.16100
C1493       C  0.04443990  0.93862129  0.12109001     0.13900
C1494       C  0.07288763  0.94226698  0.12858499     0.00900
C1495       C  0.07615163  0.91567481  0.13099651     0.15900
C1496       C  0.05154931  0.88616368  0.12588394     0.25300
C1497       C  0.02310466  0.88260824  0.11826910    -0.41100
C1498       C  0.01986047  0.90927799  0.11615760     0.32300
C1499       C  0.09952775  0.97418545  0.13195232     0.01000
F1500       F  0.10319825  0.91824645  0.13826703    -0.13400
F1501       F  0.99274289  0.90713397  0.10939295    -0.13900
C1502       C  0.09540804  0.99602595  0.14345278     0.15900
C1503       C  0.11656417  0.02790342  0.14153172     0.25300
C1504       C  0.14238955  0.03828534  0.12833601    -0.41000
C1505       C  0.14886959  0.01617550  0.11935904     0.32200
C1506       C  0.12748520  0.98446386  0.12091882     0.14000
F1507       F  0.06948546  0.98663859  0.15519478    -0.13400
F1508       F  0.17435694  0.02550117  0.10716727    -0.13900
F1509       F  0.10971584  0.04853726  0.15055943    -0.16200
F1510       F  0.13257947  0.96425754  0.10975051    -0.14700
F1511       F  0.04072672  0.96375823  0.11779053    -0.14700
F1512       F  0.05587936  0.86120410  0.12799939    -0.16100
C1513       C  0.83923117  0.72040498  0.02282598     0.13900
C1514       C  0.82433713  0.73823435  0.02022738     0.00900
C1515       C  0.82567445  0.75806922  0.03602882     0.15900
C1516       C  0.84543903  0.76351597  0.05272226     0.25300
C1517       C  0.86345954  0.74865377  0.05396937    -0.41100
C1518       C  0.85862236  0.72547079  0.03970908     0.32300
C1519       C  0.81579983  0.74341331  0.99949336     0.01000
F1520       F  0.81094071  0.77506998  0.03403810    -0.13400
F1521       F  0.87559038  0.71056763  0.04068670    -0.13900
C1522       C  0.78575573  0.73852987  0.99509640     0.15900
C1523       C  0.78041815  0.75074251  0.97708471     0.25300
C1524       C  0.80530402  0.76848818  0.96356667    -0.41000
C1525       C  0.83472533  0.77134238  0.96735919     0.32200
C1526       C  0.83989045  0.75886090  0.98511274     0.14000
F1527       F  0.76211018  0.72334677  0.00871285    -0.13400
F1528       F  0.85888645  0.78718287  0.95419136    -0.13900
F1529       F  0.75156998  0.74709366  0.97362572    -0.16200
F1530       F  0.86921761  0.76410706  0.98907032    -0.14700
F1531       F  0.83778075  0.70073634  0.00786447    -0.14700
F1532       F  0.84885717  0.78508506  0.06681382    -0.16100
C1533       C  0.24945517  0.51108536  0.03187679     0.13900
C1534       C  0.23161848  0.51681593  0.04622184     0.00900
C1535       C  0.23654737  0.51471751  0.06725088     0.15900
C1536       C  0.25980046  0.50830334  0.07388902     0.25300
C1537       C  0.27829722  0.50336775  0.05963181    -0.41100
C1538       C  0.27245938  0.50405424  0.03853935     0.32300
C1539       C  0.20972407  0.52779886  0.03994116     0.01000
F1540       F  0.21984569  0.52055114  0.08140803    -0.13400
F1541       F  0.29041178  0.50002515  0.02440132    -0.13900
C1542       C  0.17796196  0.51000520  0.04498644     0.15900
C1543       C  0.15940348  0.52411928  0.04652314     0.25300
C1544       C  0.17237150  0.55614196  0.04295344    -0.41000
C1545       C  0.20288895  0.57295086  0.03514730     0.32200
C1546       C  0.22154687  0.55882526  0.03368599     0.14000
F1547       F  0.16594531  0.47985705  0.05072162    -0.13400
F1548       F  0.21612689  0.60404295  0.03202739    -0.13900
F1549       F  0.12996440  0.50748251  0.05410159    -0.16200
F1550       F  0.25221482  0.57647746  0.02878683    -0.14700
F1551       F  0.24519785  0.51319284  0.01150589    -0.14700
F1552       F  0.26479756  0.50769385  0.09430696    -0.16100
C1553       C  0.06221484  0.69242793  0.07253715     0.13900
C1554       C  0.06838919  0.70670864  0.09192352     0.00900
C1555       C  0.08760948  0.70197360  0.10564337     0.15900
C1556       C  0.09905946  0.68198085  0.10057699     0.25300
C1557       C  0.09156275  0.66635083  0.08165446    -0.41100
C1558       C  0.07381553  0.67241304  0.06740631     0.32300
C1559       C  0.05286608  0.72456237  0.09834766     0.01000
F1560       F  0.09459512  0.71610723  0.12419452    -0.13400
F1561       F  0.06574881  0.65721881  0.04924220    -0.13900
C1562       C  0.03105349  0.71370912  0.11454663     0.15900
C1563       C  0.01287687  0.72779045  0.11865317     0.25300
C1564       C  0.01624358  0.75277712  0.10656198    -0.41000
C1565       C  0.03967614  0.76504262  0.09142319     0.32200
C1566       C  0.05788802  0.75108627  0.08737675     0.14000
F1567       F  0.02561832  0.68796979  0.12530420    -0.13400
F1568       F  0.04356826  0.78946165  0.07970310    -0.13900
F1569       F  0.98989931  0.71507059  0.13297819    -0.16200
F1570       F  0.07951214  0.76263322  0.07215234    -0.14700
F1571       F  0.04331902  0.69634439  0.05910451    -0.14700
F1572       F  0.11679164  0.67708618  0.11447376    -0.16100
C1573       C  0.01670695  0.52125569  0.01021654     0.13900
C1574       C  0.99693696  0.49124715  0.01802963     0.00900
C1575       C  0.00014186  0.48526365  0.03879884     0.15900
C1576       C  0.02253450  0.50858467  0.05135223     0.25300
C1577       C  0.04285763  0.53824632  0.04333744    -0.41100
C1578       C  0.03961702  0.54428973  0.02261514     0.32300
C1579       C  0.97340056  0.46618744  0.00453010     0.01000
F1580       F  0.98241544  0.45640016  0.04679212    -0.13400
F1581       F  0.05852947  0.57271863  0.01433934    -0.13900
C1582       C  0.98217035  0.45963235  0.98537913     0.15900
C1583       C  0.96015241  0.43597412  0.97286279     0.25300
C1584       C  0.92909001  0.41764181  0.97944853    -0.41000
C1585       C  0.92024892  0.42409229  0.99852196     0.32200
C1586       C  0.94199675  0.44834953  0.01076739     0.14000
F1587       F  0.01233677  0.47546514  0.97901344    -0.13400
F1588       F  0.89024732  0.40736685  0.00509863    -0.13900
F1589       F  0.96951774  0.43017773  0.95462058    -0.16200
F1590       F  0.93215118  0.45476364  0.02860008    -0.14700
F1591       F  0.01368717  0.52846605  0.99055720    -0.14700
F1592       F  0.02538427  0.50162296  0.07110000    -0.16100
C1593       C  0.14399935  0.66003382  0.17742544     0.13900
C1594       C  0.17597742  0.67630731  0.18211375     0.00900
C1595       C  0.19740001  0.67521885  0.16847731     0.15900
C1596       C  0.18733001  0.65839488  0.15034001     0.25300
C1597       C  0.15526771  0.64190435  0.14533027    -0.41100
C1598       C  0.13364248  0.64279362  0.15921719     0.32300
C1599       C  0.18812192  0.69565413  0.20069747     0.01000
F1600       F  0.22844279  0.69102157  0.17264513    -0.13400
F1601       F  0.10257881  0.62731599  0.15515568    -0.13900
C1602       C  0.20131978  0.68647537  0.21646576     0.15900
C1603       C  0.22013952  0.70776089  0.23134010     0.25300
C1604       C  0.22629111  0.73877434  0.23061739    -0.41000
C1605       C  0.21096340  0.74717611  0.21570599     0.32200
C1606       C  0.19209735  0.72576281  0.20085753     0.14000
F1607       F  0.19739824  0.65731301  0.21674220    -0.13400
F1608       F  0.21608074  0.77672563  0.21446615    -0.13900
F1609       F  0.23327227  0.69827086  0.24599423    -0.16200
F1610       F  0.17970128  0.73513882  0.18565793    -0.14700
F1611       F  0.12288017  0.66073416  0.19050430    -0.14700
F1612       F  0.20930166  0.65828966  0.13777939    -0.16100
C1613       C  0.85626877  0.84574524  0.39127662     0.13900
C1614       C  0.88206780  0.85996707  0.37799253     0.00900
C1615       C  0.88446685  0.88362170  0.36469478     0.15900
C1616       C  0.86448752  0.89618903  0.36704818     0.25300
C1617       C  0.84146198  0.88468315  0.38241304    -0.41100
C1618       C  0.83584133  0.85763396  0.39315403     0.32300
C1619       C  0.90902306  0.85448569  0.38108361     0.01000
F1620       F  0.90793840  0.89641231  0.35071405    -0.13400
F1621       F  0.81250747  0.84473539  0.40723516    -0.13900
C1622       C  0.90508465  0.82428373  0.38193229     0.15900
C1623       C  0.92973285  0.81948542  0.38818013     0.25300
C1624       C  0.95878865  0.84481824  0.39363545    -0.41000
C1625       C  0.96298881  0.87500447  0.39200074     0.32200
C1626       C  0.93842037  0.87975549  0.38593128     0.14000
F1627       F  0.87722323  0.79937974  0.37703595    -0.13400
F1628       F  0.99103740  0.90015389  0.39622635    -0.13900
F1629       F  0.92482550  0.79001142  0.38954978    -0.16200
F1630       F  0.94306642  0.90918569  0.38578175    -0.14700
F1631       F  0.85284911  0.82275734  0.40426982    -0.14700
F1632       F  0.87002888  0.92171243  0.35600193    -0.16100
C1633       C  0.69145080  0.84370254  0.34572471     0.13900
C1634       C  0.66345824  0.82298274  0.35559559     0.00900
C1635       C  0.66018926  0.82684182  0.37664831     0.15900
C1636       C  0.68449182  0.85110095  0.38758012     0.25300
C1637       C  0.71260500  0.87196308  0.37764593    -0.41100
C1638       C  0.71560605  0.86790502  0.35651132     0.32300
C1639       C  0.63795547  0.79758530  0.34366942     0.01000
F1640       F  0.63332246  0.80728828  0.38659539    -0.13400
F1641       F  0.74198676  0.88741514  0.34606922    -0.13900
C1642       C  0.62656695  0.76631582  0.34909049     0.15900
C1643       C  0.60399419  0.74249023  0.33699120     0.25300
C1644       C  0.59244464  0.74943982  0.31907586    -0.41000
C1645       C  0.60366906  0.78084820  0.31387219     0.32200
C1646       C  0.62603043  0.80456489  0.32606463     0.14000
F1647       F  0.63804595  0.75878679  0.36576425    -0.13400
F1648       F  0.59272524  0.78878255  0.29711035    -0.13900
F1649       F  0.59404325  0.71261385  0.34262631    -0.16200
F1650       F  0.63596882  0.83454719  0.32071933    -0.14700
F1651       F  0.69569990  0.84012563  0.32556328    -0.14700
F1652       F  0.68066750  0.85371808  0.40793808    -0.16100
C1653       C  0.81466276  0.00092438  0.50886747     0.13900
C1654       C  0.84636504  0.02248422  0.51136237     0.00900
C1655       C  0.86740792  0.02741961  0.49543796     0.15900
C1656       C  0.85719855  0.01030879  0.47741075     0.25300
C1657       C  0.82553205  0.98759306  0.47498560    -0.41100
C1658       C  0.80422539  0.98360238  0.49079120     0.32300
C1659       C  0.85846703  0.03886115  0.53088623     0.01000
F1660       F  0.89816686  0.04841244  0.49760459    -0.13400
F1661       F  0.77349700  0.96233738  0.48910419    -0.13900
C1662       C  0.87111432  0.02697041  0.54523552     0.15900
C1663       C  0.88849944  0.04508229  0.56174827     0.25300
C1664       C  0.89380402  0.07566605  0.56405645    -0.41000
C1665       C  0.87900590  0.08657347  0.55039496     0.32200
C1666       C  0.86161176  0.06829887  0.53388386     0.14000
F1667       F  0.86823922  0.99847133  0.54249877    -0.13400
F1668       F  0.88316190  0.11572531  0.55204063    -0.13900
F1669       F  0.90146259  0.03316634  0.57481843    -0.16200
F1670       F  0.84952637  0.08010247  0.52005736    -0.14700
F1671       F  0.79402038  0.99612152  0.52414892    -0.14700
F1672       F  0.87862159  0.01577188  0.46252022    -0.16100
C1673       C  0.52240962  0.01307838  0.50148700     0.13900
C1674       C  0.50443916  0.98365208  0.49279949     0.00900
C1675       C  0.51032661  0.97891970  0.47241128     0.15900
C1676       C  0.53388409  0.00322995  0.46090398     0.25300
C1677       C  0.55194188  0.03298004  0.46954783    -0.41100
C1678       C  0.54576620  0.03741817  0.49007800     0.32300
C1679       C  0.47893752  0.95839692  0.50494850     0.01000
F1680       F  0.49328375  0.95062614  0.46364858    -0.13400
F1681       F  0.56190161  0.06553920  0.49922766    -0.13900
C1682       C  0.44766972  0.94677206  0.49917931     0.15900
C1683       C  0.42346838  0.92407437  0.51108940     0.25300
C1684       C  0.42997071  0.91234663  0.52910446    -0.41000
C1685       C  0.46138726  0.92408671  0.53486296     0.32200
C1686       C  0.48558977  0.94689165  0.52289979     0.14000
F1687       F  0.44050943  0.95808786  0.48226158    -0.13400
F1688       F  0.46877316  0.91308293  0.55182752    -0.13900
F1689       F  0.39356446  0.91417192  0.50517820    -0.16200
F1690       F  0.51565111  0.95755493  0.52871379    -0.14700
F1691       F  0.51665729  0.01852329  0.52095213    -0.14700
F1692       F  0.53873417  0.99760387  0.44128507    -0.16100
C1693       C  0.79428855  0.31718281  0.45954880     0.13900
C1694       C  0.76469021  0.30747888  0.46808381     0.00900
C1695       C  0.75803276  0.32976847  0.47651089     0.15900
C1696       C  0.77911251  0.36145615  0.47405785     0.25300
C1697       C  0.80695557  0.37106480  0.46307589    -0.41100
C1698       C  0.81528748  0.34880565  0.45704566     0.32300
C1699       C  0.73898001  0.27577703  0.46381346     0.01000
F1700       F  0.72970317  0.32084521  0.48511099    -0.13400
F1701       F  0.84230374  0.35763933  0.44662690    -0.13900
C1702       C  0.73941105  0.24918913  0.47104265     0.15900
C1703       C  0.71578050  0.21949019  0.46537730     0.25300
C1704       C  0.69147441  0.21599973  0.45220022    -0.41000
C1705       C  0.69154464  0.24296311  0.44490456     0.32200
C1706       C  0.71494722  0.27232728  0.45064006     0.14000
F1707       F  0.76263516  0.25202125  0.48364021    -0.13400
F1708       F  0.66907410  0.24122266  0.43199017    -0.13900
F1709       F  0.71668347  0.19430518  0.47288892    -0.16200
F1710       F  0.71466693  0.29764711  0.44272126    -0.14700
F1711       F  0.80132850  0.29618317  0.45131280    -0.14700
F1712       F  0.77032861  0.38242904  0.47980920    -0.16100
C1713       C  0.71710602  0.07953620  0.40747299     0.13900
C1714       C  0.72044233  0.05893488  0.42069258     0.00900
C1715       C  0.70592171  0.05266033  0.44011270     0.15900
C1716       C  0.68675897  0.06525882  0.44564440     0.25300
C1717       C  0.68188913  0.08432456  0.43182486    -0.41100
C1718       C  0.69815293  0.09216198  0.41298727     0.32300
C1719       C  0.73731889  0.04246018  0.41377154     0.01000
F1720       F  0.70870442  0.03272864  0.45318315    -0.13400
F1721       F  0.69463214  0.11120415  0.39948303    -0.13900
C1722       C  0.76409861  0.04658518  0.42413512     0.15900
C1723       C  0.77737676  0.02792278  0.41949526     0.25300
C1724       C  0.76418811  0.00478627  0.40437753    -0.41000
C1725       C  0.73880014  0.00214832  0.39295795     0.32200
C1726       C  0.72548307  0.02090980  0.39759275     0.14000
F1727       F  0.77663743  0.06786508  0.43932890    -0.13400
F1728       F  0.72509332  0.97948935  0.37870609    -0.13900
F1729       F  0.80202167  0.03102379  0.43071192    -0.16200
F1730       F  0.69959316  0.01642056  0.38731235    -0.14700
F1731       F  0.73154360  0.08674891  0.38893036    -0.14700
F1732       F  0.67108583  0.05684445  0.46373292    -0.16100
C1733       C  0.45799551  0.09587261  0.32979616     0.13900
C1734       C  0.48821628  0.10337848  0.33589196     0.00900
C1735       C  0.51386559  0.12320364  0.32370506     0.15900
C1736       C  0.50955083  0.13573928  0.30570275     0.25300
C1737       C  0.47933964  0.12864505  0.29948010    -0.41100
C1738       C  0.45349123  0.10821110  0.31156524     0.32300
C1739       C  0.49429496  0.09303306  0.35565004     0.01000
F1740       F  0.54334731  0.13111454  0.32960698    -0.13400
F1741       F  0.42402293  0.10086733  0.30608332    -0.13900
C1742       C  0.50635238  0.07250251  0.35590351     0.15900
C1743       C  0.52325630  0.07154976  0.37283010     0.25300
C1744       C  0.52862626  0.09158233  0.38938047    -0.41000
C1745       C  0.51345801  0.10935229  0.39009210     0.32200
C1746       C  0.49613708  0.10990580  0.37331399     0.14000
F1747       F  0.50493607  0.05625735  0.33883477    -0.13400
F1748       F  0.51814574  0.12856980  0.40612927    -0.13900
F1749       F  0.53803887  0.05449893  0.37176690    -0.16200
F1750       F  0.48461332  0.12987633  0.37328060    -0.14700
F1751       F  0.43303507  0.07693342  0.34159031    -0.14700
F1752       F  0.53508312  0.15470548  0.29433307    -0.16100
C1753       C  0.28258565  0.70049915  0.06061454     0.13900
C1754       C  0.28648374  0.72792689  0.05147813     0.00900
C1755       C  0.25984019  0.73046897  0.04688165     0.15900
C1756       C  0.22984487  0.70615006  0.05170456     0.25300
C1757       C  0.22601182  0.67887362  0.06130360    -0.41100
C1758       C  0.25289439  0.67629212  0.06535007     0.32300
C1759       C  0.31856787  0.75464617  0.04918140     0.01000
F1760       F  0.26291705  0.75665088  0.03791838    -0.13400
F1761       F  0.25075759  0.65036113  0.07412778    -0.13900
C1762       C  0.34199914  0.75101940  0.03918509     0.15900
C1763       C  0.37362858  0.77227936  0.04247866     0.25300
C1764       C  0.38214790  0.79751071  0.05572565    -0.41000
C1765       C  0.35867404  0.80322111  0.06345233     0.32200
C1766       C  0.32717891  0.78185564  0.06036645     0.14000
F1767       F  0.33425895  0.72540210  0.02772777    -0.13400
F1768       F  0.36620000  0.82799371  0.07574928    -0.13900
F1769       F  0.39563379  0.76611736  0.03471290    -0.16200
F1770       F  0.30526565  0.78606889  0.07028931    -0.14700
F1771       F  0.30778003  0.69760463  0.06589356    -0.14700
F1772       F  0.20473019  0.70962197  0.04731859    -0.16100
C1773       C  0.41902314  0.69115006  0.07447844     0.13900
C1774       C  0.43678060  0.68639066  0.05952899     0.00900
C1775       C  0.46381568  0.71215812  0.05181715     0.15900
C1776       C  0.47229865  0.74228066  0.05847060     0.25300
C1777       C  0.45385024  0.74714711  0.07302008    -0.41100
C1778       C  0.42732600  0.72098363  0.08111756     0.32300
C1779       C  0.42725556  0.65413115  0.05311507     0.01000
F1780       F  0.48159486  0.70823054  0.03749659    -0.13400
F1781       F  0.40888230  0.72403085  0.09536612    -0.13900
C1782       C  0.39660893  0.63453231  0.04616876     0.15900
C1783       C  0.38428496  0.60229311  0.04605052     0.25300
C1784       C  0.40249958  0.58928735  0.05274796    -0.41000
C1785       C  0.43416019  0.60896632  0.05732094     0.32200
C1786       C  0.44654249  0.64122416  0.05742848     0.14000
F1787       F  0.37771522  0.64646713  0.04136743    -0.13400
F1788       F  0.45219325  0.59677149  0.06368409    -0.13900
F1789       F  0.35347657  0.58373471  0.04198127    -0.16200
F1790       F  0.47629751  0.65950254  0.06392916    -0.14700
F1791       F  0.39356209  0.66664793  0.08292174    -0.14700
F1792       F  0.49818776  0.76661049  0.05032457    -0.16100
C1793       C  0.51799569  0.84150431  0.18892462     0.13900
C1794       C  0.50791642  0.81026303  0.19341945     0.00900
C1795       C  0.49249764  0.78767642  0.17841630     0.15900
C1796       C  0.48610502  0.79582555  0.15933188     0.25300
C1797       C  0.49487493  0.82697748  0.15480694    -0.41100
C1798       C  0.51149175  0.84989102  0.16972339     0.32300
C1799       C  0.51258883  0.79994531  0.21364166     0.01000
F1800       F  0.48333338  0.75740699  0.18240142    -0.13400
F1801       F  0.52088258  0.88024252  0.16597411    -0.13900
C1802       C  0.48658773  0.78319128  0.22637175     0.15900
C1803       C  0.48711234  0.76331298  0.24142630     0.25300
C1804       C  0.51378649  0.75992321  0.24391175    -0.41000
C1805       C  0.54115443  0.77995706  0.23287725     0.32200
C1806       C  0.54040720  0.79964344  0.21772203     0.14000
F1807       F  0.45962388  0.78369255  0.22277058    -0.13400
F1808       F  0.56795755  0.77876793  0.23549810    -0.13900
F1809       F  0.46051670  0.74533879  0.25212872    -0.16200
F1810       F  0.56587363  0.81600236  0.20565001    -0.14700
F1811       F  0.53349222  0.86367033  0.20322656    -0.14700
F1812       F  0.47100710  0.77291012  0.14540794    -0.16100
C1813       C  0.35222776  0.88614991  0.18902991     0.13900
C1814       C  0.38100052  0.88732503  0.18574443     0.00900
C1815       C  0.39325931  0.87616409  0.20096863     0.15900
C1816       C  0.37532402  0.86068696  0.21805817     0.25300
C1817       C  0.34502789  0.85636501  0.22018541    -0.41100
C1818       C  0.33433563  0.87086709  0.20625954     0.32300
C1819       C  0.39385523  0.89150481  0.16490023     0.01000
F1820       F  0.42119869  0.87729139  0.19824132    -0.13400
F1821       F  0.30554684  0.86799208  0.20835673    -0.13900
C1822       C  0.42539911  0.91274755  0.16101189     0.15900
C1823       C  0.44039745  0.90848156  0.14413642     0.25300
C1824       C  0.42391271  0.88267199  0.13134468    -0.41000
C1825       C  0.39158723  0.86389359  0.13382924     0.32200
C1826       C  0.37658630  0.86836296  0.15045988     0.14000
F1827       F  0.44232600  0.93541327  0.17472730    -0.13400
F1828       F  0.37515653  0.83921197  0.12136733    -0.13900
F1829       F  0.47169390  0.92703814  0.14191167    -0.16200
F1830       F  0.34613331  0.84735732  0.15397606    -0.14700
F1831       F  0.34032443  0.89731214  0.17462370    -0.14700
F1832       F  0.38705246  0.84877273  0.23208079    -0.16100
C1833       C  0.97629321  0.06516973  0.14383567     0.13900
C1834       C  0.99783291  0.09313334  0.13424221     0.00900
C1835       C  0.98708021  0.11219079  0.12558712     0.15900
C1836       C  0.95503109  0.10169884  0.12430242     0.25300
C1837       C  0.93329850  0.07200805  0.13166344    -0.41100
C1838       C  0.94417823  0.05474069  0.14267381     0.32300
C1839       C  0.02981142  0.09913906  0.12937243     0.01000
F1840       F  0.00733898  0.13925410  0.11620612    -0.13400
F1841       F  0.92379440  0.02593238  0.14979669    -0.13900
C1842       C  0.03341153  0.07901697  0.11595878     0.15900
C1843       C  0.06303458  0.08514829  0.10965786     0.25300
C1844       C  0.09011632  0.11172609  0.11666243    -0.41000
C1845       C  0.08642562  0.13188499  0.13025131     0.32200
C1846       C  0.05649848  0.12570569  0.13641938     0.14000
F1847       F  0.00796145  0.05367458  0.10840722    -0.13400
F1848       F  0.11165841  0.15757552  0.13760201    -0.13900
F1849       F  0.06492782  0.06481602  0.09660147    -0.16200
F1850       F  0.05353785  0.14557049  0.14932727    -0.14700
F1851       F  0.98621528  0.04656964  0.15255775    -0.14700
F1852       F  0.94511157  0.11902804  0.11381405    -0.16100
C1853       C  0.89188840  0.92283397  0.11763467     0.13900
C1854       C  0.87280809  0.90084228  0.13227691     0.00900
C1855       C  0.84723494  0.90243910  0.14044859     0.15900
C1856       C  0.84115507  0.92616801  0.13429029     0.25300
C1857       C  0.86047224  0.94848469  0.11965872    -0.41100
C1858       C  0.88583203  0.94630632  0.11134056     0.32300
C1859       C  0.87871590  0.87502584  0.13730067     0.01000
F1860       F  0.82830135  0.88112594  0.15444957    -0.13400
F1861       F  0.90487649  0.96673135  0.09693758    -0.13900
C1862       C  0.90744792  0.88131778  0.14590321     0.15900
C1863       C  0.91788104  0.85967390  0.14423946     0.25300
C1864       C  0.89978244  0.83173428  0.13370093    -0.41000
C1865       C  0.86940067  0.82396137  0.12746210     0.32200
C1866       C  0.85890680  0.84548750  0.12928546     0.14000
F1867       F  0.92677492  0.90970776  0.15390346    -0.13400
F1868       F  0.85130611  0.79692673  0.11747024    -0.13900
F1869       F  0.94738073  0.86793542  0.15026219    -0.16200
F1870       F  0.83106343  0.83893898  0.12089844    -0.14700
F1871       F  0.91607527  0.92104246  0.10894789    -0.14700
F1872       F  0.81652053  0.92731847  0.14276658    -0.16100
C1873       C  0.61806853  0.88244691  0.10689213     0.13900
C1874       C  0.64045081  0.90517946  0.09398301     0.00900
C1875       C  0.63070499  0.91375977  0.07597977     0.15900
C1876       C  0.59885924  0.90082971  0.07147599     0.25300
C1877       C  0.57645106  0.87921159  0.08493834    -0.41100
C1878       C  0.58632675  0.86955515  0.10240631     0.32300
C1879       C  0.67387228  0.92119590  0.09966627     0.01000
F1880       F  0.65199341  0.93621089  0.06350806    -0.13400
F1881       F  0.56501832  0.84873798  0.11571309    -0.13900
C1882       C  0.69554224  0.91859580  0.08705906     0.15900
C1883       C  0.72748772  0.93732621  0.09044715     0.25300
C1884       C  0.73831133  0.95891734  0.10656612    -0.41000
C1885       C  0.71668407  0.95999281  0.12010893     0.32200
C1886       C  0.68456402  0.94120732  0.11666611     0.14000
F1887       F  0.68569977  0.89885033  0.07090908    -0.13400
F1888       F  0.72656148  0.98119620  0.13542265    -0.13900
F1889       F  0.74799697  0.93566800  0.07725439    -0.16200
F1890       F  0.66396179  0.94421874  0.12899236    -0.14700
F1891       F  0.62694768  0.87350348  0.12417723    -0.14700
F1892       F  0.58990647  0.91147608  0.05504811    -0.16100
C1893       C  0.93971799  0.13487733  0.03456871     0.13900
C1894       C  0.92374169  0.13946449  0.01834059     0.00900
C1895       C  0.89221654  0.13117348  0.02066187     0.15900
C1896       C  0.87579634  0.11484290  0.03813654     0.25300
C1897       C  0.89089878  0.10636924  0.05303557    -0.41100
C1898       C  0.92337103  0.11843773  0.05188632     0.32300
C1899       C  0.93758155  0.14476713  0.99782132     0.01000
F1900       F  0.87664814  0.13573364  0.00504393    -0.13400
F1901       F  0.93856064  0.11127179  0.06647330    -0.13900
C1902       C  0.93475195  0.11913125  0.98693485     0.15900
C1903       C  0.95089912  0.12338232  0.96863435     0.25300
C1904       C  0.97027398  0.15350273  0.96091232    -0.41000
C1905       C  0.97195872  0.17914874  0.97147375     0.32200
C1906       C  0.95580236  0.17473636  0.98992649     0.14000
F1907       F  0.91715182  0.08993653  0.99451319    -0.13400
F1908       F  0.99030064  0.20855099  0.96449819    -0.13900
F1909       F  0.94781868  0.09796601  0.95866572    -0.16200
F1910       F  0.95878845  0.19966570  0.00044661    -0.14700
F1911       F  0.97024958  0.14284451  0.03249404    -0.14700
F1912       F  0.84451422  0.10381154  0.03912710    -0.16100
C1913       C  0.81293355  0.92798843  0.02179957     0.13900
C1914       C  0.80017592  0.93383145  0.00423926     0.00900
C1915       C  0.79537917  0.95959615  0.00382803     0.15900
C1916       C  0.80369431  0.97957691  0.02069641     0.25300
C1917       C  0.81731968  0.97423177  0.03815243    -0.41100
C1918       C  0.82138442  0.94786982  0.03856953     0.32300
C1919       C  0.79404124  0.91403187  0.98599215     0.01000
F1920       F  0.78294684  0.96553426  0.98697588    -0.13400
F1921       F  0.83378347  0.94126991  0.05518308    -0.13900
C1922       C  0.77212463  0.88224094  0.98686147     0.15900
C1923       C  0.76979534  0.86261286  0.97074992     0.25300
C1924       C  0.78970665  0.87448249  0.95360255    -0.41000
C1925       C  0.81049459  0.90666475  0.95235174     0.32200
C1926       C  0.81261787  0.92621739  0.96841004     0.14000
F1927       F  0.75395046  0.87001008  0.00375305    -0.13400
F1928       F  0.82972829  0.91909196  0.93593007    -0.13900
F1929       F  0.74969049  0.83171747  0.97266867    -0.16200
F1930       F  0.83433922  0.95676738  0.96739500    -0.14700
F1931       F  0.81831875  0.90354609  0.02241382    -0.14700
F1932       F  0.79935018  0.00462173  0.01962562    -0.16100
C1933       C  0.30071835  0.50604360  0.31694924     0.13900
C1934       C  0.31770832  0.53828190  0.32005870     0.00900
C1935       C  0.30139416  0.55444147  0.32405090     0.15900
C1936       C  0.26874704  0.53924579  0.32251412     0.25300
C1937       C  0.25200674  0.50758689  0.31746752    -0.41100
C1938       C  0.26805406  0.49076168  0.31577515     0.32300
C1939       C  0.35151292  0.55576304  0.31494564     0.01000
F1940       F  0.31721369  0.58552739  0.32734010    -0.13400
F1941       F  0.25242101  0.46032034  0.31053173    -0.13900
C1942       C  0.36076090  0.55791411  0.29436670     0.15900
C1943       C  0.39191531  0.57708073  0.28858436     0.25300
C1944       C  0.41474132  0.59461694  0.30330443    -0.41000
C1945       C  0.40560373  0.59116139  0.32415733     0.32200
C1946       C  0.37422920  0.57212635  0.32985725     0.14000
F1947       F  0.33912045  0.54268381  0.27962862    -0.13400
F1948       F  0.42658985  0.60753858  0.33898570    -0.13900
F1949       F  0.39939516  0.57937153  0.26839375    -0.16200
F1950       F  0.36588235  0.57035754  0.34985722    -0.14700
F1951       F  0.31595550  0.48990608  0.31328610    -0.14700
F1952       F  0.25369225  0.55599175  0.32410692    -0.16100
C1953       C  0.25282785  0.66547319  0.31368722     0.13900
C1954       C  0.22102549  0.65168958  0.30844832     0.00900
C1955       C  0.20789244  0.67077974  0.30433330     0.15900
C1956       C  0.22664888  0.70311755  0.30424153     0.25300
C1957       C  0.25883602  0.71675251  0.30800420    -0.41100
C1958       C  0.27167461  0.69779678  0.31321730     0.32300
C1959       C  0.20273912  0.61773089  0.30500583     0.01000
F1960       F  0.17724809  0.65802153  0.29933774    -0.13400
F1961       F  0.30281965  0.71056133  0.31661276    -0.13900
C1962       C  0.19761617  0.59675669  0.32101878     0.15900
C1963       C  0.18416817  0.56494331  0.31710080     0.25300
C1964       C  0.17605048  0.55349272  0.29692485    -0.41000
C1965       C  0.17952687  0.57448220  0.28111799     0.32200
C1966       C  0.19271815  0.60625537  0.28514610     0.14000
F1967       F  0.20676974  0.60725982  0.34036931    -0.13400
F1968       F  0.17155082  0.56454860  0.26154494    -0.13900
F1969       F  0.18117167  0.54574964  0.33292270    -0.16200
F1970       F  0.19760854  0.62611248  0.26935271    -0.14700
F1971       F  0.26613148  0.64757413  0.31768035    -0.14700
F1972       F  0.21399727  0.72101080  0.29853235    -0.16100
C1973       C  0.26598697  0.45043020  0.16478285     0.13900
C1974       C  0.27955885  0.44601926  0.18255709     0.00900
C1975       C  0.30945055  0.44905500  0.18137733     0.15900
C1976       C  0.32613109  0.45782160  0.16293182     0.25300
C1977       C  0.31312718  0.46374747  0.14537569    -0.41100
C1978       C  0.28257015  0.45914193  0.14636705     0.32300
C1979       C  0.26350195  0.44140555  0.20248848     0.01000
F1980       F  0.32277162  0.44427664  0.19822806    -0.13400
F1981       F  0.26885623  0.46355286  0.12957964    -0.13900
C1982       C  0.23264898  0.41741534  0.20495470     0.15900
C1983       C  0.21478788  0.41752603  0.22154568     0.25300
C1984       C  0.22758615  0.44175200  0.23603274    -0.41000
C1985       C  0.25956806  0.46376361  0.23472172     0.32200
C1986       C  0.27732343  0.46366401  0.21801725     0.14000
F1987       F  0.21919337  0.39492432  0.19055486    -0.13400
F1988       F  0.27328067  0.48653345  0.24891160    -0.13900
F1989       F  0.18430482  0.39519606  0.22241789    -0.16200
F1990       F  0.30729492  0.48688966  0.21616661    -0.14700
F1991       F  0.23720201  0.44788383  0.16549203    -0.14700
F1992       F  0.35558805  0.46204151  0.16258000    -0.16100
C1993       C  0.12512552  0.48931471  0.14523122     0.13900
C1994       C  0.10255291  0.48224817  0.16055582     0.00900
C1995       C  0.07871994  0.48974475  0.15743668     0.15900
C1996       C  0.07930948  0.50692031  0.14017486     0.25300
C1997       C  0.10398352  0.51700780  0.12602596    -0.41100
C1998       C  0.12584970  0.50660683  0.12808420     0.32300
C1999       C  0.10786596  0.47321264  0.18112817     0.01000
F2000       F  0.05650672  0.48276861  0.17200707    -0.13400
F2001       F  0.14954247  0.51550624  0.11436276    -0.13900
C2002       C  0.11643711  0.49476824  0.19714941     0.15900
C2003       C  0.12664811  0.48920005  0.21580087     0.25300
C2004       C  0.12810043  0.46184703  0.21883498    -0.41000
C2005       C  0.11818567  0.43954266  0.20321757     0.32200
C2006       C  0.10844098  0.44537038  0.18433495     0.14000
F2007       F  0.11677493  0.52215347  0.19427402    -0.13400
F2008       F  0.11987936  0.41314332  0.20579518    -0.13900
F2009       F  0.13579780  0.51085900  0.23080483    -0.16200
F2010       F  0.10066549  0.42446488  0.16895915    -0.14700
F2011       F  0.14847320  0.48244974  0.14793944    -0.14700
F2012       F  0.05796504  0.51671750  0.13860837    -0.16100
C2013       C  0.67425453  0.23942261  0.20583023     0.13900
C2014       C  0.66267676  0.20723008  0.20614372     0.00900
C2015       C  0.68353493  0.19558726  0.20465217     0.15900
C2016       C  0.71582286  0.21606675  0.20381160     0.25300
C2017       C  0.72745729  0.24833092  0.20480707    -0.41100
C2018       C  0.70635977  0.25980605  0.20529925     0.32300
C2019       C  0.62897577  0.18659504  0.20973298     0.01000
F2020       F  0.67270418  0.16451439  0.20502487    -0.13400
F2021       F  0.71695369  0.29080711  0.20649504    -0.13900
C2022       C  0.60771467  0.18106396  0.19387499     0.15900
C2023       C  0.57597881  0.16902492  0.19820731     0.25300
C2024       C  0.56507005  0.16289647  0.21865370    -0.41000
C2025       C  0.58613084  0.16564176  0.23425791     0.32200
C2026       C  0.61785078  0.17744708  0.22979522     0.14000
F2027       F  0.61809338  0.18958849  0.17436994    -0.13400
F2028       F  0.57652693  0.15895760  0.25404835    -0.13900
F2029       F  0.55658354  0.16608545  0.18252099    -0.16200
F2030       F  0.63813334  0.18241614  0.24533185    -0.14700
F2031       F  0.65440855  0.25107653  0.20737870    -0.14700
F2032       F  0.73571451  0.20437428  0.20397917    -0.16100
C2033       C  0.82218656  0.18814359  0.16210209     0.13900
C2034       C  0.81159866  0.15880965  0.17092750     0.00900
C2035       C  0.80329495  0.15423834  0.19174137     0.15900
C2036       C  0.80610672  0.17891401  0.20373041     0.25300
C2037       C  0.81771415  0.20878930  0.19511379    -0.41100
C2038       C  0.82525801  0.21291171  0.17400293     0.32300
C2039       C  0.81251094  0.13402791  0.15890811     0.01000
F2040       F  0.79299171  0.12592413  0.20052435    -0.13400
F2041       F  0.83634843  0.24106611  0.16481328    -0.13900
C2042       C  0.83617309  0.12670345  0.16276849     0.15900
C2043       C  0.83859030  0.10451827  0.15098778     0.25300
C2044       C  0.81714088  0.08890960  0.13507682    -0.41000
C2045       C  0.79336548  0.09636201  0.13119064     0.32200
C2046       C  0.79115911  0.11886534  0.14301657     0.14000
F2047       F  0.85749468  0.14167746  0.17772707    -0.13400
F2048       F  0.77191964  0.08149316  0.11629477    -0.13900
F2049       F  0.86247965  0.09886195  0.15495835    -0.16200
F2050       F  0.76804438  0.12567608  0.13912756    -0.14700
F2051       F  0.83087873  0.19311352  0.14208278    -0.14700
F2052       F  0.79800899  0.17357266  0.22382746    -0.16100
C2053       C  0.79520759  0.39737363  0.18570281     0.13900
C2054       C  0.78899923  0.41377064  0.20075424     0.00900
C2055       C  0.79741276  0.41244579  0.22115568     0.15900
C2056       C  0.80958242  0.39309378  0.22670859     0.25300
C2057       C  0.81356114  0.37459417  0.21189637    -0.41100
C2058       C  0.80765534  0.37821314  0.19113780     0.32300
C2059       C  0.76974821  0.42851695  0.19597717     0.01000
F2060       F  0.79150327  0.42804117  0.23601187    -0.13400
F2061       F  0.81192243  0.36169345  0.17614334    -0.13900
C2062       C  0.73775917  0.40960663  0.19191661     0.15900
C2063       C  0.71763645  0.42207455  0.19234331     0.25300
C2064       C  0.72928553  0.45372345  0.19641358    -0.41000
C2065       C  0.76167352  0.47320270  0.19843687     0.32200
C2066       C  0.78177418  0.46060685  0.19843263     0.14000
F2067       F  0.72555167  0.37851316  0.18958341    -0.13400
F2068       F  0.77335342  0.50371074  0.20291044    -0.13900
F2069       F  0.68639250  0.40277433  0.19066355    -0.16200
F2070       F  0.81260126  0.47930737  0.20229787    -0.14700
F2071       F  0.78769699  0.39870931  0.16584710    -0.14700
F2072       F  0.81548031  0.39103150  0.24680828    -0.16100
C2073       C  0.96814066  0.34031575  0.24033494     0.13900
C2074       C  0.97646881  0.36929882  0.24912424     0.00900
C2075       C  0.95683334  0.38220829  0.24588027     0.15900
C2076       C  0.92854413  0.36558046  0.23519612     0.25300
C2077       C  0.91926972  0.33563973  0.22771430    -0.41100
C2078       C  0.93986066  0.32365823  0.22985428     0.32300
C2079       C  0.00517675  0.38533968  0.26202260     0.01000
F2080       F  0.96401445  0.41001541  0.25422662    -0.13400
F2081       F  0.93186035  0.29501237  0.22258781    -0.13900
C2082       C  0.02900691  0.41549593  0.25710143     0.15900
C2083       C  0.05737515  0.42902551  0.26785203     0.25300
C2084       C  0.06263847  0.41253480  0.28352633    -0.41000
C2085       C  0.03840455  0.38297001  0.28903930     0.32200
C2086       C  0.00978316  0.36970743  0.27863788     0.14000
F2087       F  0.02576573  0.43092244  0.24086678    -0.13400
F2088       F  0.04307311  0.36628129  0.30382580    -0.13900
F2089       F  0.08084902  0.45702412  0.26159900    -0.16200
F2090       F  0.98690614  0.34103226  0.28431805    -0.14700
F2091       F  0.98707908  0.32767574  0.24237155    -0.14700
F2092       F  0.90898052  0.37757906  0.23381530    -0.16100
C2093       C  0.74277380  0.18909986  0.31363517     0.13900
C2094       C  0.71205075  0.18408802  0.31415422     0.00900
C2095       C  0.70114223  0.19440470  0.29763233     0.15900
C2096       C  0.72130291  0.21135495  0.28156270     0.25300
C2097       C  0.75279184  0.21834228  0.28176714    -0.41100
C2098       C  0.76295071  0.20597588  0.29759340     0.32300
C2099       C  0.69279878  0.17126953  0.33292441     0.01000
F2100       F  0.67154770  0.18981610  0.29769373    -0.13400
F2101       F  0.79302575  0.21201905  0.29838665    -0.13900
C2102       C  0.70344341  0.18723793  0.35151841     0.15900
C2103       C  0.68558852  0.17603111  0.36934644     0.25300
C2104       C  0.65656719  0.14848927  0.36902696    -0.41000
C2105       C  0.64588996  0.13238583  0.35040295     0.32200
C2106       C  0.66380216  0.14381912  0.33245928     0.14000
F2107       F  0.73096574  0.21424611  0.35230805    -0.13400
F2108       F  0.61770160  0.10618220  0.34940383    -0.13900
F2109       F  0.69691057  0.19214019  0.38700395    -0.16200
F2110       F  0.65289678  0.12809204  0.31464552    -0.14700
F2111       F  0.75365299  0.17876719  0.32921022    -0.14700
F2112       F  0.71028406  0.22188668  0.26617616    -0.16100
C2113       C  0.86951715  0.36077147  0.36461285     0.13900
C2114       C  0.89328056  0.37735238  0.35022175     0.00900
C2115       C  0.91563874  0.40831894  0.35421458     0.15900
C2116       C  0.91226409  0.42349789  0.37125780     0.25300
C2117       C  0.88625017  0.40785049  0.38425019    -0.41100
C2118       C  0.86593509  0.37598211  0.38147414     0.32300
C2119       C  0.88965858  0.36472002  0.32935864     0.01000
F2120       F  0.93889087  0.42460767  0.34053435    -0.13400
F2121       F  0.84103901  0.36023900  0.39412080    -0.13900
C2122       C  0.88057120  0.37811140  0.31364092     0.15900
C2123       C  0.86869231  0.36228689  0.29534718     0.25300
C2124       C  0.86582215  0.33288488  0.29244510    -0.41000
C2125       C  0.87763218  0.32075920  0.30734834     0.32200
C2126       C  0.88921563  0.33649764  0.32584275     0.14000
F2127       F  0.88050678  0.40523302  0.31672473    -0.13400
F2128       F  0.87553729  0.29256697  0.30475005    -0.13900
F2129       F  0.85863121  0.37507052  0.28081191    -0.16200
F2130       F  0.89811285  0.32333054  0.34080618    -0.14700
F2131       F  0.84756879  0.33084780  0.36104674    -0.14700
F2132       F  0.93218952  0.45432263  0.37359055    -0.16100
C2133       C  0.72549651  0.45740626  0.47008706     0.13900
C2134       C  0.69859920  0.43000356  0.46429213     0.00900
C2135       C  0.70158519  0.40962647  0.45075801     0.15900
C2136       C  0.73074694  0.41638947  0.44304112     0.25300
C2137       C  0.75799461  0.44381787  0.44875661    -0.41100
C2138       C  0.75496836  0.46419665  0.46251763     0.32300
C2139       C  0.66679072  0.42385903  0.46992068     0.01000
F2140       F  0.67588411  0.38344885  0.44438255    -0.13400
F2141       F  0.78043049  0.49070057  0.46870412    -0.13900
C2142       C  0.65539603  0.44227949  0.46113046     0.15900
C2143       C  0.62324210  0.43099651  0.45971892     0.25300
C2144       C  0.60200638  0.40109055  0.46701505    -0.41000
C2145       C  0.61340682  0.38468166  0.47848225     0.32200
C2146       C  0.64571799  0.39598166  0.47985734     0.14000
F2147       F  0.67515299  0.46928910  0.45148710    -0.13400
F2148       F  0.59346265  0.35589640  0.48583275    -0.13900
F2149       F  0.61279312  0.44753088  0.44881651    -0.16200
F2150       F  0.65631815  0.37823037  0.48901681    -0.14700
F2151       F  0.72318721  0.47756313  0.48307603    -0.14700
F2152       F  0.73204735  0.39579503  0.42993302    -0.16100
C2153       C  0.51526723  0.23455618  0.47616939     0.13900
C2154       C  0.53873720  0.23043060  0.46687035     0.00900
C2155       C  0.55508585  0.24916991  0.45008036     0.15900
C2156       C  0.54865369  0.27204610  0.44284469     0.25300
C2157       C  0.52566826  0.27702982  0.45233522    -0.41100
C2158       C  0.50888512  0.25779402  0.46907334     0.32300
C2159       C  0.54553377  0.20552401  0.47327951     0.01000
F2160       F  0.57721072  0.24495777  0.44042846    -0.13400
F2161       F  0.48681664  0.26184703  0.47890625    -0.13900
C2162       C  0.52603613  0.17510958  0.46651214     0.15900
C2163       C  0.53742933  0.15418076  0.46527836     0.25300
C2164       C  0.56851734  0.16344600  0.47072369    -0.41000
C2165       C  0.58633416  0.19226307  0.48034705     0.32200
C2166       C  0.57495124  0.21329424  0.48148454     0.14000
F2167       F  0.49751661  0.16699907  0.45858800    -0.13400
F2168       F  0.61638061  0.20188733  0.48574552    -0.13900
F2169       F  0.51957986  0.12631783  0.45614237    -0.16200
F2170       F  0.59397257  0.24245022  0.48845274    -0.14700
F2171       F  0.49891296  0.21643003  0.49228963    -0.14700
F2172       F  0.56523466  0.28938446  0.42650455    -0.16100
C2173       C  0.64689216  0.51318538  0.33012322     0.13900
C2174       C  0.62077147  0.48437441  0.33460097     0.00900
C2175       C  0.61006661  0.46048004  0.32009189     0.15900
C2176       C  0.62583961  0.46490822  0.30157373     0.25300
C2177       C  0.65249745  0.49346744  0.29715724    -0.41100
C2178       C  0.66248640  0.51787946  0.31136460     0.32300
C2179       C  0.60654682  0.47716738  0.35514934     0.01000
F2180       F  0.58507165  0.43229160  0.32431316    -0.13400
F2181       F  0.68818479  0.54569808  0.30754417    -0.13900
C2182       C  0.57587065  0.47155525  0.35794450     0.15900
C2183       C  0.55857049  0.45477283  0.37505257     0.25300
C2184       C  0.57171924  0.44294542  0.38915829    -0.41000
C2185       C  0.60354385  0.45178139  0.38754161     0.32200
C2186       C  0.62088790  0.46887381  0.37062993     0.14000
F2187       F  0.56178255  0.47961312  0.34311249    -0.13400
F2188       F  0.61693305  0.44118333  0.40127902    -0.13900
F2189       F  0.52795098  0.44672703  0.37637956    -0.16200
F2190       F  0.65051069  0.47406981  0.36814807    -0.14700
F2191       F  0.65770921  0.53635393  0.34413131    -0.14700
F2192       F  0.61509249  0.44115299  0.28799040    -0.16100
C2193       C  0.44324629  0.24777727  0.30402926     0.13900
C2194       C  0.47166817  0.27457352  0.30823225     0.00900
C2195       C  0.49709519  0.28302232  0.29500549     0.15900
C2196       C  0.49525484  0.26315095  0.27921484     0.25300
C2197       C  0.46790522  0.23422492  0.27652809    -0.41100
C2198       C  0.44126945  0.22779961  0.28825107     0.32300
C2199       C  0.47654003  0.29032306  0.32821929     0.01000
F2200       F  0.52467291  0.30914281  0.29854393    -0.13400
F2201       F  0.41384178  0.20122479  0.28543923    -0.13900
C2202       C  0.47589487  0.27419654  0.34615598     0.15900
C2203       C  0.48359858  0.28923476  0.36505459     0.25300
C2204       C  0.49173135  0.32064906  0.36644399    -0.41000
C2205       C  0.49162714  0.33667511  0.34854759     0.32200
C2206       C  0.48436929  0.32166328  0.32952428     0.14000
F2207       F  0.46895853  0.24405105  0.34521394    -0.13400
F2208       F  0.49992186  0.36720554  0.34932537    -0.13900
F2209       F  0.48311859  0.27303059  0.38202691    -0.16200
F2210       F  0.48540767  0.33777005  0.31236846    -0.14700
F2211       F  0.41795934  0.23995073  0.31612302    -0.14700
F2212       F  0.52113588  0.27131879  0.26765077    -0.16100
C2213       C  0.99809552  0.11571287  0.38108247     0.13900
C2214       C  0.98730096  0.08559449  0.37365885     0.00900
C2215       C  0.00864668  0.07787748  0.36476848     0.15900
C2216       C  0.04081211  0.09879224  0.36559454     0.25300
C2217       C  0.05179250  0.12734032  0.37564458    -0.41100
C2218       C  0.03014191  0.13654406  0.38194990     0.32300
C2219       C  0.95571550  0.06080193  0.37950309     0.01000
F2220       F  0.99855059  0.04889512  0.35735388    -0.13400
F2221       F  0.04017306  0.16414878  0.39154927    -0.13900
C2222       C  0.92944323  0.05379957  0.36749621     0.15900
C2223       C  0.89975515  0.03031738  0.37365428     0.25300
C2224       C  0.89595914  0.01352241  0.39199868    -0.41000
C2225       C  0.92250568  0.02120804  0.40411574     0.32200
C2226       C  0.95197560  0.04456576  0.39790790     0.14000
F2227       F  0.93261439  0.06950569  0.34975547    -0.13400
F2228       F  0.92003743  0.00632453  0.42213203    -0.13900
F2229       F  0.87494433  0.02353254  0.36137945    -0.16200
F2230       F  0.97707059  0.05153832  0.40997222    -0.14700
F2231       F  0.97786669  0.12363716  0.38972671    -0.14700
F2232       F  0.06113170  0.08928275  0.35940543    -0.16100
C2233       C  0.16832441  0.30965427  0.37716140     0.13900
C2234       C  0.16311518  0.30778061  0.35595513     0.00900
C2235       C  0.15810815  0.28106403  0.34544130     0.15900
C2236       C  0.15800498  0.25634481  0.35595829     0.25300
C2237       C  0.16312846  0.25792137  0.37731855    -0.41100
C2238       C  0.16845877  0.28503955  0.38777217     0.32300
C2239       C  0.16212973  0.33327741  0.34469190     0.01000
F2240       F  0.15250006  0.27861521  0.32496936    -0.13400
F2241       F  0.17306556  0.28757966  0.40834375    -0.13900
C2242       C  0.18468679  0.35009950  0.32966904     0.15900
C2243       C  0.18235525  0.37248622  0.31780652     0.25300
C2244       C  0.15746633  0.37846790  0.32086567    -0.41000
C2245       C  0.13542857  0.36228079  0.33635148     0.32200
C2246       C  0.13767909  0.33973519  0.34811420     0.14000
F2247       F  0.20894941  0.34475542  0.32650791    -0.13400
F2248       F  0.11095365  0.36730623  0.33948395    -0.13900
F2249       F  0.20465919  0.38863320  0.30351910    -0.16200
F2250       F  0.11533285  0.32334308  0.36231681    -0.14700
F2251       F  0.17330362  0.33539067  0.38758252    -0.14700
F2252       F  0.15263025  0.23080684  0.34513359    -0.16100
C2253       C  0.07919898  0.96092109  0.36597971     0.13900
C2254       C  0.10643590  0.98249752  0.37628184     0.00900
C2255       C  0.12439601  0.97173972  0.38656768     0.15900
C2256       C  0.11331615  0.93985789  0.38870464     0.25300
C2257       C  0.08392664  0.91818614  0.38079529    -0.41100
C2258       C  0.06800688  0.92892381  0.36819857     0.32300
C2259       C  0.11220384  0.01450438  0.38021137     0.01000
F2260       F  0.15073812  0.99188846  0.39666657    -0.13400
F2261       F  0.03970863  0.90868272  0.36027337    -0.13900
C2262       C  0.08980964  0.01822690  0.39128367     0.15900
C2263       C  0.09531112  0.04763670  0.39696415     0.25300
C2264       C  0.12362548  0.07451328  0.39178267    -0.41000
C2265       C  0.14611133  0.07080560  0.38052070     0.32200
C2266       C  0.14049452  0.04102514  0.37491183     0.14000
F2267       F  0.06276333  0.99304703  0.39732852    -0.13400
F2268       F  0.17359881  0.09585322  0.37505115    -0.13900
F2269       F  0.07260070  0.04947598  0.40769431    -0.16200
F2270       F  0.16265311  0.03806093  0.36432429    -0.14700
F2271       F  0.06185240  0.97080187  0.35545439    -0.14700
F2272       F  0.12966650  0.93013001  0.40049413    -0.16100
C2273       C  0.36708130  0.25895811  0.41214283     0.13900
C2274       C  0.34415424  0.25897128  0.42503163     0.00900
C2275       C  0.35391913  0.27747396  0.44286012     0.15900
C2276       C  0.38582077  0.29622932  0.44727187     0.25300
C2277       C  0.40855083  0.29731602  0.43377532    -0.41100
C2278       C  0.39886465  0.27814835  0.41634500     0.32300
C2279       C  0.31024130  0.24056545  0.41965247     0.01000
F2280       F  0.33259293  0.27875647  0.45544327    -0.13400
F2281       F  0.42036394  0.27856280  0.40307282    -0.13900
C2282       C  0.28855488  0.22035069  0.43411990     0.15900
C2283       C  0.25649466  0.20575113  0.43010220     0.25300
C2284       C  0.24515296  0.21056914  0.41136334    -0.41000
C2285       C  0.26680272  0.22907176  0.39629066     0.32200
C2286       C  0.29905185  0.24410548  0.40043461     0.14000
F2287       F  0.29839341  0.21519162  0.45241962    -0.13400
F2288       F  0.25673858  0.23455804  0.37819322    -0.13900
F2289       F  0.23632027  0.18758347  0.44492912    -0.16200
F2290       F  0.31919604  0.26365775  0.38611312    -0.14700
F2291       F  0.35871897  0.24057091  0.39531660    -0.14700
F2292       F  0.39446220  0.31499124  0.46391329    -0.16100
C2293       C  0.16995399  0.10621688  0.49244143     0.13900
C2294       C  0.17511828  0.12243937  0.51093397     0.00900
C2295       C  0.17225568  0.14933133  0.51147933     0.15900
C2296       C  0.16416407  0.15978017  0.49377205     0.25300
C2297       C  0.15855529  0.14326514  0.47531705    -0.41100
C2298       C  0.16180367  0.11653801  0.47479177     0.32300
C2299       C  0.18183270  0.11008349  0.52974765     0.01000
F2300       F  0.17709345  0.16531355  0.52920648    -0.13400
F2301       F  0.15720412  0.10038630  0.45714674    -0.13900
C2302       C  0.20756791  0.10506271  0.53047393     0.15900
C2303       C  0.21109670  0.08870194  0.54681669     0.25300
C2304       C  0.18879509  0.07701293  0.56271588    -0.41000
C2305       C  0.16437568  0.08427297  0.56268743     0.32200
C2306       C  0.16083356  0.10046237  0.54626889     0.14000
F2307       F  0.22850698  0.11478092  0.51482619    -0.13400
F2308       F  0.14289527  0.07433465  0.57802665    -0.13900
F2309       F  0.23508142  0.08245478  0.54623982    -0.16200
F2310       F  0.13559354  0.10477744  0.54582616    -0.14700
F2311       F  0.17183924  0.07973744  0.49162819    -0.14700
F2312       F  0.16072935  0.18536177  0.49487570    -0.16100
C2313       C  0.03472144  0.17952342  0.47558273     0.13900
C2314       C  0.05032785  0.20392375  0.48948509     0.00900
C2315       C  0.08086104  0.22739150  0.48509974     0.15900
C2316       C  0.09695823  0.22448945  0.46833913     0.25300
C2317       C  0.08269617  0.19777471  0.45607266    -0.41100
C2318       C  0.05085559  0.17638667  0.45898555     0.32300
C2319       C  0.03831678  0.19983613  0.51059318     0.01000
F2320       F  0.09610653  0.25131072  0.49830718    -0.13400
F2321       F  0.03614034  0.15103891  0.44680107    -0.13900
C2322       C  0.05145581  0.18911956  0.52545459     0.15900
C2323       C  0.03726550  0.17916232  0.54453250     0.25300
C2324       C  0.00973431  0.17992069  0.54915075    -0.41000
C2325       C  0.99766378  0.19258259  0.53475924     0.32200
C2326       C  0.01170395  0.20212864  0.51542971     0.14000
F2327       F  0.07690140  0.18625171  0.52092061    -0.13400
F2328       F  0.97109860  0.19361379  0.53883304    -0.13900
F2329       F  0.04988320  0.16775646  0.55826683    -0.16200
F2330       F  0.99863666  0.21227300  0.50116681    -0.14700
F2331       F  0.00508178  0.15673559  0.47948297    -0.14700
F2332       F  0.12752219  0.24579604  0.46568829    -0.16100
C2333       C  0.63616818  0.22789661  0.96657841     0.13900
C2334       C  0.65213927  0.21105762  0.96873763     0.00900
C2335       C  0.63504269  0.17896660  0.97264685     0.15900
C2336       C  0.60224299  0.16364964  0.97338839     0.25300
C2337       C  0.58622740  0.18026906  0.96999353    -0.41100
C2338       C  0.60355765  0.21266287  0.96715194     0.32300
C2339       C  0.68647600  0.22703693  0.96580083     0.01000
F2340       F  0.65011643  0.16235124  0.97491754    -0.13400
F2341       F  0.58872877  0.22931771  0.96369648    -0.13900
C2342       C  0.70630548  0.24727285  0.98081519     0.15900
C2343       C  0.73846012  0.26503537  0.97722813     0.25300
C2344       C  0.75148276  0.26339686  0.95827548    -0.41000
C2345       C  0.73148873  0.24238988  0.94341625     0.32200
C2346       C  0.69932671  0.22432850  0.94720317     0.14000
F2347       F  0.69427682  0.25073473  0.99870642    -0.13400
F2348       F  0.74279418  0.24010065  0.92491430    -0.13900
F2349       F  0.75643064  0.28537000  0.99188376    -0.16200
F2350       F  0.68043114  0.20539426  0.93226729    -0.14700
F2351       F  0.65213556  0.25887209  0.96267107    -0.14700
F2352       F  0.58616990  0.13233384  0.97566038    -0.16100
C2353       C  0.48186925  0.94451544  0.01696188     0.13900
C2354       C  0.49278701  0.97444725  0.02480136     0.00900
C2355       C  0.50413154  0.98077864  0.04498961     0.15900
C2356       C  0.50493900  0.95763526  0.05704190     0.25300
C2357       C  0.49439408  0.92761909  0.04909971    -0.41100
C2358       C  0.48276358  0.92143104  0.02885887     0.32300
C2359       C  0.49240797  0.99891454  0.01173991     0.01000
F2360       F  0.51478108  0.00953189  0.05297706    -0.13400
F2361       F  0.47196178  0.89292156  0.02042924    -0.13900
C2362       C  0.47572520  0.01384513  0.01782571     0.15900
C2363       C  0.47465522  0.03622117  0.00517020     0.25300
C2364       C  0.49014301  0.04403398  0.98603212    -0.41000
C2365       C  0.50682371  0.02897707  0.97999734     0.32200
C2366       C  0.50802378  0.00676206  0.99276255     0.14000
F2367       F  0.45961222  0.00605284  0.03577249    -0.13400
F2368       F  0.52232091  0.03594781  0.96184048    -0.13900
F2369       F  0.45761947  0.04952280  0.01146956    -0.16200
F2370       F  0.52473086  0.99302407  0.98665869    -0.14700
F2371       F  0.46967696  0.93740392  0.99779643    -0.14700
F2372       F  0.51571425  0.96463739  0.07653696    -0.16100
C2373       C  0.51666077  0.26917142  0.95082909     0.13900
C2374       C  0.52217399  0.27875844  0.97137633     0.00900
C2375       C  0.51397678  0.25636555  0.98686506     0.15900
C2376       C  0.50216598  0.22505767  0.98189067     0.25300
C2377       C  0.49885757  0.21554379  0.96119690    -0.41100
C2378       C  0.50515393  0.23791132  0.94574954     0.32300
C2379       C  0.53992453  0.31232162  0.97625818     0.01000
F2380       F  0.51865736  0.26504123  0.00683378    -0.13400
F2381       F  0.50219786  0.23004924  0.92564308    -0.13900
C2382       C  0.52737101  0.33189435  0.97209168     0.15900
C2383       C  0.54641107  0.36421805  0.97287303     0.25300
C2384       C  0.57834530  0.37732038  0.97742454    -0.41000
C2385       C  0.59035327  0.35774664  0.98293654     0.32200
C2386       C  0.57118095  0.32547135  0.98262739     0.14000
F2387       F  0.49724077  0.31971213  0.96597227    -0.13400
F2388       F  0.62126031  0.36989211  0.98696529    -0.13900
F2389       F  0.53453340  0.38268204  0.96692380    -0.16200
F2390       F  0.58385652  0.30704758  0.98673431    -0.14700
F2391       F  0.52457678  0.29048396  0.93556113    -0.14700
F2392       F  0.49561419  0.20439790  0.99742263    -0.16100
C2393       C  0.64611131  0.11722664  0.85018807     0.13900
C2394       C  0.61588218  0.11343732  0.84855978     0.00900
C2395       C  0.60475669  0.11595593  0.82922392     0.15900
C2396       C  0.62378087  0.12314312  0.81192982     0.25300
C2397       C  0.65434925  0.12786955  0.81356608    -0.41100
C2398       C  0.66517071  0.12417998  0.83275673     0.32300
C2399       C  0.59666396  0.10976665  0.86696005     0.01000
F2400       F  0.57596210  0.11312898  0.82725708    -0.13400
F2401       F  0.69476277  0.12916955  0.83484536    -0.13900
C2402       C  0.60693338  0.13383064  0.88133863     0.15900
C2403       C  0.58650683  0.13362475  0.89632601     0.25300
C2404       C  0.55530231  0.10938019  0.89715225    -0.41000
C2405       C  0.54582179  0.08407380  0.88374826     0.32200
C2406       C  0.56633320  0.08436420  0.86874111     0.14000
F2407       F  0.63609547  0.15867323  0.87997756    -0.13400
F2408       F  0.51612919  0.06001126  0.88420968    -0.13900
F2409       F  0.59701665  0.15778812  0.90957368    -0.16200
F2410       F  0.55612684  0.06051354  0.85527082    -0.14700
F2411       F  0.65740246  0.11499195  0.86872311    -0.14700
F2412       F  0.61249785  0.12615917  0.79356686    -0.16100
C2413       C  0.38821795  0.14361978  0.82578244     0.13900
C2414       C  0.41098647  0.13541183  0.83091263     0.00900
C2415       C  0.43750712  0.14548956  0.81842846     0.15900
C2416       C  0.44280319  0.16604672  0.80232344     0.25300
C2417       C  0.42152841  0.17666556  0.79833843    -0.41100
C2418       C  0.39331587  0.16397261  0.80939818     0.32300
C2419       C  0.41203612  0.12385173  0.85156669     0.01000
F2420       F  0.46014647  0.13840433  0.82336257    -0.13400
F2421       F  0.37235481  0.17382464  0.80584884    -0.13900
C2422       C  0.41342014  0.09631074  0.85414642     0.15900
C2423       C  0.42611542  0.09144056  0.87208363     0.25300
C2424       C  0.43807835  0.11447935  0.88723426    -0.41000
C2425       C  0.43327755  0.14015781  0.88559767     0.32200
C2426       C  0.42019638  0.14474124  0.86792450     0.14000
F2427       F  0.40518179  0.07567763  0.83856637    -0.13400
F2428       F  0.44333789  0.16199556  0.90053405    -0.13900
F2429       F  0.42962675  0.06593933  0.87368480    -0.16200
F2430       F  0.41908697  0.17152539  0.86579495    -0.14700
F2431       F  0.36250890  0.13415449  0.83775129    -0.14700
F2432       F  0.46998876  0.17751758  0.79165142    -0.16100
C2433       C  0.01345162  0.85938792  0.86647155     0.13900
C2434       C  0.99401650  0.87261994  0.86887002     0.00900
C2435       C  0.00748056  0.90504157  0.86936512     0.15900
C2436       C  0.03993133  0.92387462  0.86917506     0.25300
C2437       C  0.05959050  0.91064891  0.86842911    -0.41100
C2438       C  0.04610493  0.87832626  0.86608992     0.32300
C2439       C  0.96018072  0.85317706  0.87328627     0.01000
F2440       F  0.98918672  0.91836349  0.87157935    -0.13400
F2441       F  0.06444252  0.86488755  0.86545058    -0.13900
C2442       C  0.95016166  0.84361054  0.89349112     0.15900
C2443       C  0.91847597  0.83027540  0.89871152     0.25300
C2444       C  0.89603259  0.82623730  0.88375668    -0.41000
C2445       C  0.90611876  0.83409500  0.86320623     0.32200
C2446       C  0.93788678  0.84766003  0.85811436     0.14000
F2447       F  0.97141003  0.84904245  0.90846032    -0.13400
F2448       F  0.88560811  0.83057525  0.84813958    -0.13900
F2449       F  0.91013735  0.82292482  0.91864818    -0.16200
F2450       F  0.94709287  0.85685535  0.83850546    -0.14700
F2451       F  0.00084940  0.82809271  0.86569192    -0.14700
F2452       F  0.05226196  0.95505057  0.87117844    -0.16100
C2453       C  0.13375028  0.07657865  0.88500158     0.13900
C2454       C  0.11798733  0.07282071  0.86634807     0.00900
C2455       C  0.11696156  0.05114992  0.85215056     0.15900
C2456       C  0.12954546  0.03198754  0.85703049     0.25300
C2457       C  0.14303197  0.03379364  0.87645120    -0.41100
C2458       C  0.14611001  0.05717408  0.89005474     0.32300
C2459       C  0.09792339  0.08715487  0.86341962     0.01000
F2460       F  0.10179362  0.04708037  0.83406792    -0.13400
F2461       F  0.15952851  0.06016443  0.90869749    -0.13900
C2462       C  0.11057751  0.11951170  0.86195696     0.15900
C2463       C  0.09094463  0.13269148  0.86282829     0.25300
C2464       C  0.05857852  0.11357501  0.86546927    -0.41000
C2465       C  0.04590893  0.08117246  0.86527315     0.32200
C2466       C  0.06537291  0.06809296  0.86426206     0.14000
F2467       F  0.14195824  0.13829162  0.86078370    -0.13400
F2468       F  0.01471385  0.06218690  0.86778467    -0.13900
F2469       F  0.10376491  0.16404316  0.86312718    -0.16200
F2470       F  0.05256012  0.03680028  0.86591682    -0.14700
F2471       F  0.13486854  0.09728711  0.89904179    -0.14700
F2472       F  0.12591055  0.00982871  0.84336163    -0.16100
C2473       C  0.34328427  0.03046051  0.94107619     0.13900
C2474       C  0.33647568  0.05015970  0.92915465     0.00900
C2475       C  0.35717726  0.08236498  0.92975784     0.15900
C2476       C  0.38520064  0.09431441  0.94092193     0.25300
C2477       C  0.39298743  0.07423039  0.95159730    -0.41100
C2478       C  0.37123391  0.04232030  0.95207034     0.32300
C2479       C  0.30846135  0.03649962  0.91556285     0.01000
F2480       F  0.35136168  0.10200253  0.91837725    -0.13400
F2481       F  0.37797715  0.02230620  0.96222496    -0.13900
C2482       C  0.28410811  0.04334186  0.91840960     0.15900
C2483       C  0.25591845  0.02684572  0.90763818     0.25300
C2484       C  0.25144598  0.00297231  0.89404176    -0.41000
C2485       C  0.27639010  0.99737095  0.89034163     0.32200
C2486       C  0.30477696  0.01428345  0.90075489     0.14000
F2487       F  0.28666790  0.06422237  0.93278678    -0.13400
F2488       F  0.27265663  0.97435074  0.87742544    -0.13900
F2489       F  0.23187673  0.03206069  0.91202574    -0.16200
F2490       F  0.32829248  0.00798891  0.89705857    -0.14700
F2491       F  0.32329542  0.99940552  0.94144245    -0.14700
F2492       F  0.40607035  0.12509007  0.93960840    -0.16100
C2493       C  0.20096775  0.03192289  0.03046164     0.13900
C2494       C  0.22310430  0.04808674  0.01508310     0.00900
C2495       C  0.24478841  0.07965916  0.01788953     0.15900
C2496       C  0.24248562  0.09549323  0.03498424     0.25300
C2497       C  0.21806200  0.07996451  0.04915259    -0.41100
C2498       C  0.19830862  0.04779352  0.04729487     0.32300
C2499       C  0.21848874  0.03373995  0.99464643     0.01000
F2500       F  0.26644139  0.09564293  0.00322011    -0.13400
F2501       F  0.17481678  0.03220214  0.06096215    -0.13900
C2502       C  0.20576621  0.04374436  0.97905476     0.15900
C2503       C  0.19431470  0.02643296  0.96120014     0.25300
C2504       C  0.19562929  0.99889424  0.95848553    -0.41000
C2505       C  0.21042459  0.99002980  0.97343261     0.32200
C2506       C  0.22147857  0.00720327  0.99154404     0.14000
F2507       F  0.20221079  0.06905405  0.98181718    -0.13400
F2508       F  0.21206072  0.96357564  0.97122017    -0.13900
F2509       F  0.18086703  0.03603996  0.94684210    -0.16200
F2510       F  0.23366778  0.99715612  0.00647002    -0.14700
F2511       F  0.17969052  0.00146451  0.02804494    -0.14700
F2512       F  0.26182269  0.12658091  0.03642476    -0.16100
C2513       C  0.03597936  0.85409651  0.96294133     0.13900
C2514       C  0.04770065  0.84772320  0.98082487     0.00900
C2515       C  0.07938520  0.85608530  0.98183874     0.15900
C2516       C  0.09956343  0.87240775  0.96566386     0.25300
C2517       C  0.08827455  0.88071702  0.94826565    -0.41100
C2518       C  0.05604591  0.87034956  0.94674236     0.32300
C2519       C  0.02774423  0.83569067  0.99921925     0.01000
F2520       F  0.09119504  0.85044655  0.99912481    -0.13400
F2521       F  0.04412240  0.87696487  0.92988871    -0.13900
C2522       C  0.01898853  0.80607493  0.00707001     0.15900
C2523       C  0.00071321  0.79538762  0.02485990     0.25300
C2524       C  0.99126388  0.81441180  0.03519254    -0.41000
C2525       C  0.00022676  0.84416316  0.02717890     0.32200
C2526       C  0.01819827  0.85459358  0.00935981     0.14000
F2527       F  0.02811671  0.78753822  0.99745971    -0.13400
F2528       F  0.99140094  0.86320396  0.03643949    -0.13900
F2529       F  0.99294743  0.76676816  0.03220557    -0.16200
F2530       F  0.02686854  0.88353032  0.00217212    -0.14700
F2531       F  0.00526919  0.84568160  0.96155675    -0.14700
F2532       F  0.13050082  0.88222801  0.96780726    -0.16100
C2533       C  0.30142784  0.72461707  0.80483113     0.13900
C2534       C  0.32246659  0.75447043  0.79740892     0.00900
C2535       C  0.31096581  0.77412831  0.79108886     0.15900
C2536       C  0.27871803  0.76285725  0.78999388     0.25300
C2537       C  0.25759240  0.73189402  0.79539224    -0.41100
C2538       C  0.26917671  0.71346187  0.80397169     0.32300
C2539       C  0.35499227  0.76245113  0.79238880     0.01000
F2540       F  0.33078652  0.80298444  0.78379045    -0.13400
F2541       F  0.24940833  0.68324263  0.80870631    -0.13900
C2542       C  0.36010203  0.74631578  0.77658581     0.15900
C2543       C  0.39027477  0.75266252  0.77160737     0.25300
C2544       C  0.41631266  0.77526341  0.78248386    -0.41000
C2545       C  0.41122336  0.79238542  0.79781505     0.32200
C2546       C  0.38076371  0.78606405  0.80265368     0.14000
F2547       F  0.33563742  0.72428285  0.76584639    -0.13400
F2548       F  0.43551505  0.81456936  0.80855249    -0.13900
F2549       F  0.39379752  0.73636115  0.75611990    -0.16200
F2550       F  0.37634946  0.80239656  0.81770002    -0.14700
F2551       F  0.31206462  0.70521942  0.81100026    -0.14700
F2552       F  0.26807223  0.78100489  0.78146862    -0.16100
C2553       C  0.15978248  0.82647398  0.85630910     0.13900
C2554       C  0.14454910  0.82133941  0.83722408     0.00900
C2555       C  0.13227552  0.84064996  0.83143887     0.15900
C2556       C  0.13619281  0.86518959  0.84402085     0.25300
C2557       C  0.15175504  0.87052751  0.86293091    -0.41100
C2558       C  0.16296808  0.85057178  0.86914852     0.32300
C2559       C  0.14211829  0.79636194  0.82326253     0.01000
F2560       F  0.11622516  0.83561391  0.81363956    -0.13400
F2561       F  0.17839564  0.85535528  0.88718200    -0.13900
C2562       C  0.13027532  0.76579049  0.83053687     0.15900
C2563       C  0.13044239  0.74292631  0.81803772     0.25300
C2564       C  0.14166915  0.74984181  0.79779470    -0.41000
C2565       C  0.15202875  0.77991088  0.79009065     0.32200
C2566       C  0.15258612  0.80306526  0.80276750     0.14000
F2567       F  0.11854898  0.75802458  0.84982369    -0.13400
F2568       F  0.16335957  0.78735931  0.77069232    -0.13900
F2569       F  0.11959635  0.71386819  0.82574023    -0.16200
F2570       F  0.16476318  0.83239691  0.79528421    -0.14700
F2571       F  0.17270119  0.80890638  0.86219382    -0.14700
F2572       F  0.12441150  0.88361321  0.83779923    -0.16100
C2573       C  0.21921029  0.58514981  0.78102231     0.13900
C2574       C  0.19988320  0.56264166  0.79531746     0.00900
C2575       C  0.17349150  0.56336644  0.80287400     0.15900
C2576       C  0.16688968  0.58673153  0.79647817     0.25300
C2577       C  0.18645979  0.60957424  0.78218143    -0.41100
C2578       C  0.21261475  0.60820829  0.77446400     0.32300
C2579       C  0.20660265  0.53733772  0.80069336     0.01000
F2580       F  0.15428935  0.54159377  0.81655022    -0.13400
F2581       F  0.23200707  0.62910613  0.76040775    -0.13900
C2582       C  0.23475730  0.54419097  0.81049950     0.15900
C2583       C  0.24606922  0.52310252  0.80978568     0.25300
C2584       C  0.22954015  0.49516082  0.79895714    -0.41000
C2585       C  0.19968240  0.48688066  0.79129428     0.32200
C2586       C  0.18826886  0.50780161  0.79219893     0.14000
F2587       F  0.25268523  0.57251315  0.81902016    -0.13400
F2588       F  0.18305698  0.45985557  0.78096173    -0.13900
F2589       F  0.27499583  0.53182388  0.81723237    -0.16200
F2590       F  0.16102103  0.50062557  0.78265077    -0.14700
F2591       F  0.24426576  0.58431458  0.77295092    -0.14700
F2592       F  0.14150489  0.58702779  0.80440711    -0.16100
C2593       C  0.29223107  0.84160292  0.65538133     0.13900
C2594       C  0.27044554  0.81135746  0.66143895     0.00900
C2595       C  0.26542076  0.78619762  0.64911248     0.15900
C2596       C  0.28275130  0.79092052  0.63130454     0.25300
C2597       C  0.30559375  0.82107226  0.62543049    -0.41100
C2598       C  0.30955841  0.84652480  0.63733202     0.32300
C2599       C  0.25529457  0.80458036  0.68165942     0.01000
F2600       F  0.24464427  0.75673536  0.65493576    -0.13400
F2601       F  0.33116800  0.87595340  0.63208984    -0.13900
C2602       C  0.22342201  0.79536999  0.68320572     0.15900
C2603       C  0.20601553  0.77764706  0.70001609     0.25300
C2604       C  0.22041553  0.76866157  0.71512183    -0.41000
C2605       C  0.25294594  0.78089074  0.71462740     0.32200
C2606       C  0.27031697  0.79888993  0.69801865     0.14000
F2607       F  0.20862428  0.80065297  0.66741789    -0.13400
F2608       F  0.26740142  0.77292106  0.72927678    -0.13900
F2609       F  0.17461340  0.76606027  0.70016705    -0.16200
F2610       F  0.30108242  0.80746765  0.69667984    -0.14700
F2611       F  0.29739603  0.86612443  0.66726555    -0.14700
F2612       F  0.27744977  0.76576975  0.62003421    -0.16100
C2613       C  0.14661322  0.59684274  0.68039134     0.13900
C2614       C  0.13088500  0.60145223  0.66406607     0.00900
C2615       C  0.12128088  0.62379331  0.66566662     0.15900
C2616       C  0.12828073  0.64211622  0.68332245     0.25300
C2617       C  0.14524014  0.63840102  0.69951676    -0.41100
C2618       C  0.15366163  0.61493809  0.69794674     0.32300
C2619       C  0.12669853  0.58391969  0.64506141     0.01000
F2620       F  0.10576631  0.62825182  0.64997384    -0.13400
F2621       F  0.16921120  0.60961195  0.71323630    -0.13900
C2622       C  0.10161402  0.55370021  0.64316011     0.15900
C2623       C  0.10157298  0.53430394  0.62759497     0.25300
C2624       C  0.12695828  0.54485534  0.61383590    -0.41000
C2625       C  0.15098171  0.57603486  0.61500672     0.32200
C2626       C  0.15084583  0.59528718  0.63055340     0.14000
F2627       F  0.07820179  0.54234685  0.65721639    -0.13400
F2628       F  0.17547683  0.58758193  0.60175799    -0.13900
F2629       F  0.07776012  0.50460312  0.62697468    -0.16200
F2630       F  0.17543170  0.62443320  0.63233337    -0.14700
F2631       F  0.15597576  0.57521402  0.67904961    -0.14700
F2632       F  0.11916801  0.66393908  0.68425732    -0.16100
C2633       C  0.65401214  0.44171693  0.72233202     0.13900
C2634       C  0.64246808  0.41044126  0.71730957     0.00900
C2635       C  0.66285526  0.40077897  0.70933725     0.15900
C2636       C  0.69500066  0.42140860  0.70858592     0.25300
C2637       C  0.70692643  0.45169171  0.71609866    -0.41100
C2638       C  0.68611629  0.46228811  0.72166516     0.32300
C2639       C  0.61092020  0.38708526  0.72408790     0.01000
F2640       F  0.65193440  0.37058568  0.70429445    -0.13400
F2641       F  0.69723388  0.49154606  0.72889434    -0.13900
C2642       C  0.58433050  0.38194061  0.71312827     0.15900
C2643       C  0.55470405  0.35893046  0.71956117     0.25300
C2644       C  0.55130910  0.34079411  0.73718196    -0.41000
C2645       C  0.57814022  0.34707972  0.74854295     0.32200
C2646       C  0.60760582  0.36995742  0.74200996     0.14000
F2647       F  0.58717583  0.39864906  0.69591941    -0.13400
F2648       F  0.57601270  0.33096320  0.76592712    -0.13900
F2649       F  0.52958068  0.35372401  0.70807268    -0.16200
F2650       F  0.63310770  0.37540030  0.75317286    -0.14700
F2651       F  0.63464705  0.45143595  0.73009207    -0.14700
F2652       F  0.71462364  0.41049942  0.70345938    -0.16100
C2653       C  0.78464105  0.30102332  0.72395703     0.13900
C2654       C  0.76374144  0.31061738  0.71688169     0.00900
C2655       C  0.73448023  0.28833850  0.70928440     0.15900
C2656       C  0.72515883  0.25667611  0.71051901     0.25300
C2657       C  0.74479028  0.24696755  0.71975136    -0.41100
C2658       C  0.77517236  0.26939566  0.72548579     0.32300
C2659       C  0.77000409  0.34254087  0.72120609     0.01000
F2660       F  0.71390530  0.29713252  0.70238973    -0.13400
F2661       F  0.79454573  0.26057387  0.73445145    -0.13900
C2662       C  0.79353887  0.36840544  0.71088086     0.15900
C2663       C  0.79978912  0.39851310  0.71594061     0.25300
C2664       C  0.78273653  0.40320953  0.73161764    -0.41000
C2665       C  0.75955494  0.37697154  0.74215453     0.32200
C2666       C  0.75325084  0.34711410  0.73691984     0.14000
F2667       F  0.81014527  0.36442607  0.69572591    -0.13400
F2668       F  0.74282639  0.37997819  0.75766966    -0.13900
F2669       F  0.82213695  0.42289867  0.70524778    -0.16200
F2670       F  0.73100565  0.32247934  0.74753189    -0.14700
F2671       F  0.81292967  0.32210626  0.73146606    -0.14700
F2672       F  0.69549726  0.23555938  0.70523119    -0.16100
C2673       C  0.00916765  0.59974382  0.77495790     0.13900
C2674       C  0.99981530  0.58236006  0.75672734     0.00900
C2675       C  0.02261345  0.58302402  0.74352308     0.15900
C2676       C  0.05425654  0.60220193  0.74776156     0.25300
C2677       C  0.06373318  0.62111145  0.76531129    -0.41100
C2678       C  0.04100518  0.61904602  0.77923541     0.32300
C2679       C  0.96651738  0.56566301  0.75059938     0.01000
F2680       F  0.01414773  0.56593297  0.72609902    -0.13400
F2681       F  0.04948085  0.63759095  0.79598243    -0.13900
C2682       C  0.95626355  0.57645124  0.73390350     0.15900
C2683       C  0.92437935  0.56273787  0.72926940     0.25300
C2684       C  0.90241438  0.53805700  0.74124785    -0.41000
C2685       C  0.91284210  0.52626724  0.75725758     0.32200
C2686       C  0.94465563  0.53992803  0.76187625     0.14000
F2687       F  0.97696974  0.60161187  0.72297684    -0.13400
F2688       F  0.89191694  0.50252542  0.76913712    -0.13900
F2689       F  0.91476771  0.57530772  0.71432846    -0.16200
F2690       F  0.95405292  0.52872265  0.77777552    -0.14700
F2691       F  0.98745649  0.59962310  0.78787631    -0.14700
F2692       F  0.07579137  0.60345567  0.73417243    -0.16100
C2693       C  0.85229349  0.49590618  0.84383738     0.13900
C2694       C  0.85299414  0.46785525  0.84435731     0.00900
C2695       C  0.84236872  0.44805458  0.82736016     0.15900
C2696       C  0.83067486  0.45577030  0.81023994     0.25300
C2697       C  0.82912200  0.48345529  0.80977810    -0.41100
C2698       C  0.84059607  0.50378205  0.82660199     0.32300
C2699       C  0.86147064  0.45699667  0.86313510     0.01000
F2700       F  0.84196135  0.42038349  0.82772145    -0.13400
F2701       F  0.83941723  0.53064646  0.82672984    -0.13900
C2702       C  0.84226971  0.44959728  0.88050786     0.15900
C2703       C  0.84393706  0.43079311  0.89589461     0.25300
C2704       C  0.86474682  0.41898700  0.89404481    -0.41000
C2705       C  0.88635522  0.42934201  0.87778736     0.32200
C2706       C  0.88467030  0.44822773  0.86241446     0.14000
F2707       F  0.81981987  0.45799495  0.88163396    -0.13400
F2708       F  0.90708599  0.41886581  0.87568399    -0.13900
F2709       F  0.82377338  0.42250961  0.91194679    -0.16200
F2710       F  0.90398203  0.45587515  0.84594691    -0.14700
F2711       F  0.86239503  0.51532336  0.86015147    -0.14700
F2712       F  0.82067352  0.43588874  0.79415060    -0.16100
C2713       C  0.69307177  0.51262055  0.80493541     0.13900
C2714       C  0.70621168  0.53063819  0.82252961     0.00900
C2715       C  0.73826209  0.55239416  0.82271182     0.15900
C2716       C  0.75754908  0.55300062  0.80668220     0.25300
C2717       C  0.74484195  0.53162765  0.79058972    -0.41100
C2718       C  0.71233137  0.51274264  0.78921549     0.32300
C2719       C  0.68879107  0.52031175  0.84205733     0.01000
F2720       F  0.75141861  0.57012291  0.83952405    -0.13400
F2721       F  0.69957889  0.49198040  0.77374223    -0.13900
C2722       C  0.68045286  0.49046663  0.84923819     0.15900
C2723       C  0.66499006  0.47976954  0.86780851     0.25300
C2724       C  0.65759461  0.49881408  0.87996787    -0.41000
C2725       C  0.66610707  0.52896708  0.87280309     0.32200
C2726       C  0.68169978  0.53963751  0.85396528     0.14000
F2727       F  0.68799526  0.47168516  0.83836054    -0.13400
F2728       F  0.65957777  0.54818950  0.88398265    -0.13900
F2729       F  0.65748926  0.45057941  0.87378765    -0.16200
F2730       F  0.68968940  0.56864094  0.84730569    -0.14700
F2731       F  0.66203985  0.49192733  0.80426261    -0.14700
F2732       F  0.78894104  0.57135475  0.80829274    -0.16100
C2733       C  0.97089457  0.83505292  0.63666038     0.13900
C2734       C  0.99021225  0.86652335  0.64157769     0.00900
C2735       C  0.97629917  0.88425820  0.64760574     0.15900
C2736       C  0.94377601  0.87132676  0.64743566     0.25300
C2737       C  0.92457440  0.84029793  0.64167037    -0.41100
C2738       C  0.93830062  0.82200680  0.63679512     0.32300
C2739       C  0.02451759  0.88203779  0.63802512     0.01000
F2740       F  0.99427946  0.91481910  0.65207814    -0.13400
F2741       F  0.92026359  0.79234525  0.63034341    -0.13900
C2742       C  0.03613100  0.88384308  0.61809621     0.15900
C2743       C  0.06794965  0.90271207  0.61384642     0.25300
C2744       C  0.08896755  0.92052228  0.62944201    -0.41000
C2745       C  0.07755866  0.91681493  0.64971080     0.32200
C2746       C  0.04564601  0.89786904  0.65390065     0.14000
F2747       F  0.01628478  0.86907524  0.60238082    -0.13400
F2748       F  0.09683568  0.93294295  0.66536197    -0.13900
F2749       F  0.07774512  0.90482022  0.59415716    -0.16200
F2750       F  0.03513861  0.89593688  0.67338178    -0.14700
F2751       F  0.98366112  0.81741773  0.63072744    -0.14700
F2752       F  0.93103284  0.88961511  0.65169418    -0.16100
C2753       C  0.82078282  0.68258168  0.68129353     0.13900
C2754       C  0.82326576  0.65892664  0.67108152     0.00900
C2755       C  0.82580245  0.66019007  0.64958068     0.15900
C2756       C  0.82583123  0.68462517  0.63852257     0.25300
C2757       C  0.82336991  0.70843904  0.64875126    -0.41100
C2758       C  0.82094409  0.70704572  0.67034034     0.32300
C2759       C  0.82280881  0.63290950  0.68298091     0.01000
F2760       F  0.82860910  0.63789113  0.63926231    -0.13400
F2761       F  0.81867310  0.72935223  0.68103992    -0.13900
C2762       C  0.80023657  0.60197994  0.67897985     0.15900
C2763       C  0.79884241  0.57766691  0.69087846     0.25300
C2764       C  0.81982552  0.58376611  0.70723333    -0.41000
C2765       C  0.84266839  0.61473284  0.71103413     0.32200
C2766       C  0.84422775  0.63897103  0.69897464     0.14000
F2767       F  0.77878437  0.59534187  0.66396049    -0.13400
F2768       F  0.86391001  0.62160762  0.72622536    -0.13900
F2769       F  0.77623693  0.54821441  0.68675018    -0.16200
F2770       F  0.86693688  0.66847476  0.70281831    -0.14700
F2771       F  0.81747430  0.68165390  0.70198376    -0.14700
F2772       F  0.82789666  0.68465425  0.61778013    -0.16100
C2773       C  0.84899577  0.93811279  0.62725325     0.13900
C2774       C  0.86597664  0.95068624  0.64534070     0.00900
C2775       C  0.86782208  0.93070556  0.65990760     0.15900
C2776       C  0.85538775  0.89908588  0.65568648     0.25300
C2777       C  0.84121583  0.88692745  0.63659736    -0.41100
C2778       C  0.83676558  0.90651706  0.62287378     0.32300
C2779       C  0.88701814  0.98465282  0.64688713     0.01000
F2780       F  0.88380585  0.94232529  0.67760062    -0.13400
F2781       F  0.82226365  0.89556543  0.60464787    -0.13900
C2782       C  0.87548838  0.00554565  0.64881393     0.15900
C2783       C  0.89583822  0.03768157  0.64710289     0.25300
C2784       C  0.92778477  0.04911536  0.64307594    -0.41000
C2785       C  0.93935341  0.02817604  0.64221087     0.32200
C2786       C  0.91921883  0.99632769  0.64420640     0.14000
F2787       F  0.84445413  0.99476649  0.65144835    -0.13400
F2788       F  0.97002916  0.03849944  0.63822944    -0.13900
F2789       F  0.88394628  0.05733633  0.64757862    -0.16200
F2790       F  0.93086629  0.97662902  0.64199250    -0.14700
F2791       F  0.84669552  0.95696041  0.61299139    -0.14700
F2792       F  0.85986437  0.88112503  0.66957370    -0.16100
C2793       C  0.98198899  0.79351358  0.51442811     0.13900
C2794       C  0.95336635  0.79346064  0.51389117     0.00900
C2795       C  0.94310038  0.79972576  0.49532114     0.15900
C2796       C  0.96122672  0.80636167  0.47762585     0.25300
C2797       C  0.99015368  0.80691757  0.47807747    -0.41100
C2798       C  0.00018422  0.79997257  0.49660745     0.32300
C2799       C  0.93454210  0.78852538  0.53267495     0.01000
F2800       F  0.91587478  0.80049803  0.49448996    -0.13400
F2801       F  0.02810547  0.80066572  0.49769307    -0.13900
C2802       C  0.94597157  0.81046908  0.54849257     0.15900
C2803       C  0.92618276  0.80917237  0.56433953     0.25300
C2804       C  0.89448741  0.78590476  0.56460210    -0.41000
C2805       C  0.88378539  0.76262078  0.54952058     0.32200
C2806       C  0.90364137  0.76403674  0.53368237     0.14000
F2807       F  0.97573024  0.83440384  0.54785305    -0.13400
F2808       F  0.85357529  0.73961086  0.54923996    -0.13900
F2809       F  0.93781674  0.83147079  0.57897449    -0.16200
F2810       F  0.89228298  0.74226117  0.51872120    -0.14700
F2811       F  0.99239319  0.78759034  0.53224061    -0.14700
F2812       F  0.95041794  0.81238384  0.46000955    -0.16100
C2813       C  0.78135806  0.82537776  0.48164573     0.13900
C2814       C  0.75999305  0.82222637  0.49704984     0.00900
C2815       C  0.74019476  0.83488298  0.49387876     0.15900
C2816       C  0.74394744  0.85311287  0.47652073     0.25300
C2817       C  0.76776481  0.85908639  0.46231575    -0.41100
C2818       C  0.78541908  0.84394399  0.46449481     0.32300
C2819       C  0.76377200  0.81232412  0.51776617     0.01000
F2820       F  0.71912742  0.83179322  0.50845107    -0.13400
F2821       F  0.80814107  0.84892077  0.45073637    -0.13900
C2822       C  0.77509414  0.83447456  0.53350165     0.15900
C2823       C  0.78631584  0.82859303  0.55162459     0.25300
C2824       C  0.78634383  0.80042196  0.55439235    -0.41000
C2825       C  0.77257492  0.77717590  0.53941196     0.32200
C2826       C  0.76156029  0.78320787  0.52111054     0.14000
F2827       F  0.77774551  0.86289589  0.53064274    -0.13400
F2828       F  0.77201553  0.74961100  0.54176744    -0.13900
F2829       F  0.79834085  0.85099603  0.56617088    -0.16200
F2830       F  0.75035280  0.76134328  0.50620498    -0.14700
F2831       F  0.80065901  0.81326109  0.48425008    -0.14700
F2832       F  0.72672250  0.86767216  0.47480695    -0.16100
C2833       C  0.28488606  0.50320203  0.55882875     0.13900
C2834       C  0.29805773  0.51871433  0.54030212     0.00900
C2835       C  0.27835371  0.51870588  0.52474383     0.15900
C2836       C  0.24622037  0.50544044  0.52818005     0.25300
C2837       C  0.23325706  0.49222277  0.54741657    -0.41100
C2838       C  0.25278435  0.49002805  0.56235705     0.32300
C2839       C  0.33236916  0.53841613  0.53847389     0.01000
F2840       F  0.29052591  0.53313646  0.50660004    -0.13400
F2841       F  0.24116523  0.47674932  0.58087101    -0.13900
C2842       C  0.35222458  0.52557911  0.54033888     0.15900
C2843       C  0.38457311  0.54495612  0.54198347     0.25300
C2844       C  0.39734473  0.57735464  0.54203460    -0.41000
C2845       C  0.37764829  0.59014936  0.53924243     0.32200
C2846       C  0.34544058  0.57084616  0.53727455     0.14000
F2847       F  0.34011586  0.49435303  0.54161147    -0.13400
F2848       F  0.38948385  0.62139541  0.53963134    -0.13900
F2849       F  0.40308635  0.53214488  0.54545426    -0.16200
F2850       F  0.32676824  0.58387104  0.53582309    -0.14700
F2851       F  0.30345253  0.50300274  0.57416928    -0.14700
F2852       F  0.22836002  0.50791077  0.51321169    -0.16100
C2853       C  0.45102022  0.79054490  0.54001711     0.13900
C2854       C  0.43953138  0.75849224  0.53811917     0.00900
C2855       C  0.40817113  0.73910503  0.53274124     0.15900
C2856       C  0.38787581  0.75118392  0.53102389     0.25300
C2857       C  0.39879256  0.78288287  0.53433682    -0.41100
C2858       C  0.43076535  0.80276902  0.53791353     0.32300
C2859       C  0.45855930  0.74418819  0.54415437     0.01000
F2860       F  0.39663376  0.70801732  0.53095897    -0.13400
F2861       F  0.44159859  0.83334957  0.54170993    -0.13900
C2862       C  0.46148468  0.73884875  0.56497607     0.15900
C2863       C  0.47250881  0.71866893  0.57080774     0.25300
C2864       C  0.48074010  0.70346199  0.55581170    -0.41000
C2865       C  0.48056889  0.71141118  0.53499425     0.32200
C2866       C  0.46923730  0.73131918  0.52926731     0.14000
F2867       F  0.45123878  0.75120183  0.57960810    -0.13400
F2868       F  0.48938672  0.69838318  0.51997075    -0.13900
F2869       F  0.47288875  0.71238399  0.59104581    -0.16200
F2870       F  0.46683268  0.73652322  0.50907980    -0.14700
F2871       F  0.48126635  0.80957089  0.54523758    -0.14700
F2872       F  0.35699398  0.73154944  0.52788260    -0.16100
C2873       C  0.62077901  0.71685507  0.59043536     0.13900
C2874       C  0.64318791  0.70704003  0.59206092     0.00900
C2875       C  0.63820867  0.68030638  0.58140437     0.15900
C2876       C  0.61051742  0.66248589  0.57064847     0.25300
C2877       C  0.58733253  0.67123844  0.56991920    -0.41100
C2878       C  0.59307020  0.69911609  0.57937694     0.32300
C2879       C  0.67157294  0.72369173  0.60505285     0.01000
F2880       F  0.65994717  0.67091768  0.58188485    -0.13400
F2881       F  0.57073037  0.70772244  0.57945466    -0.13900
C2882       C  0.67840302  0.70712509  0.61990065     0.15900
C2883       C  0.70820286  0.72001877  0.62857290     0.25300
C2884       C  0.73134456  0.75008053  0.62313366    -0.41000
C2885       C  0.72354482  0.76792578  0.61005405     0.32200
C2886       C  0.69388463  0.75478265  0.60098175     0.14000
F2887       F  0.65680058  0.67758185  0.62493331    -0.13400
F2888       F  0.74575709  0.79682878  0.60422729    -0.13900
F2889       F  0.71523603  0.70230684  0.64107709    -0.16200
F2890       F  0.68806140  0.77144070  0.58679307    -0.14700
F2891       F  0.62479727  0.74247107  0.60057663    -0.14700
F2892       F  0.60571477  0.63578516  0.56165449    -0.16100
C2893       C  0.50326401  0.45478616  0.50135367     0.13900
C2894       C  0.48701871  0.46966856  0.49429048     0.00900
C2895       C  0.47236349  0.46153762  0.47506282     0.15900
C2896       C  0.47387690  0.43873604  0.46310223     0.25300
C2897       C  0.49035376  0.42378206  0.47011160    -0.41100
C2898       C  0.50502806  0.43222703  0.48946371     0.32300
C2899       C  0.48671979  0.49451826  0.50683553     0.01000
F2900       F  0.45636588  0.47553256  0.46795065    -0.13400
F2901       F  0.52174590  0.41916608  0.49687132    -0.13900
C2902       C  0.50345995  0.52555833  0.50036381     0.15900
C2903       C  0.50615761  0.54945565  0.51312444     0.25300
C2904       C  0.49207612  0.54279816  0.53273115    -0.41000
C2905       C  0.47439352  0.51148146  0.53886263     0.32200
C2906       C  0.47186931  0.48763594  0.52605898     0.14000
F2907       F  0.51827303  0.53283728  0.48194727    -0.13400
F2908       F  0.45933598  0.50382171  0.55718787    -0.13900
F2909       F  0.52339947  0.57918885  0.50642396    -0.16200
F2910       F  0.45497283  0.45771138  0.53244903    -0.14700
F2911       F  0.51824756  0.46278641  0.51965744    -0.14700
F2912       F  0.45904175  0.43125751  0.44474675    -0.16100
C2913       C  0.33932826  0.46567030  0.67176716     0.13900
C2914       C  0.36720537  0.49419854  0.67199138     0.00900
C2915       C  0.37631449  0.51174712  0.69006862     0.15900
C2916       C  0.35757678  0.50129142  0.70753278     0.25300
C2917       C  0.32922089  0.47308858  0.70724723    -0.41100
C2918       C  0.32048601  0.45509949  0.68929175     0.32300
C2919       C  0.38603515  0.50699990  0.65318210     0.01000
F2920       F  0.40282082  0.53972460  0.69056502    -0.13400
F2921       F  0.29308718  0.42800948  0.68838005    -0.13900
C2922       C  0.37328623  0.51422617  0.63614514     0.15900
C2923       C  0.39248965  0.53157082  0.61987443     0.25300
C2924       C  0.42478718  0.54205465  0.62044420    -0.41000
C2925       C  0.43703017  0.53273753  0.63682542     0.32200
C2926       C  0.41777968  0.51540626  0.65306618     0.14000
F2927       F  0.34268591  0.50647741  0.63594455    -0.13400
F2928       F  0.46806888  0.54251057  0.63802933    -0.13900
F2929       F  0.37972616  0.53934761  0.60402283    -0.16200
F2930       F  0.43046334  0.50822048  0.66924887    -0.14700
F2931       F  0.33016628  0.44830541  0.65447374    -0.14700
F2932       F  0.36711832  0.51899697  0.72469087    -0.16100
C2933       C  0.54294025  0.70317937  0.65584830     0.13900
C2934       C  0.55108787  0.68965206  0.67200057     0.00900
C2935       C  0.55059553  0.66131306  0.66881517     0.15900
C2936       C  0.54038491  0.64590288  0.65004264     0.25300
C2937       C  0.52999342  0.65845335  0.63452040    -0.41100
C2938       C  0.53233883  0.68763636  0.63731972     0.32300
C2939       C  0.55430549  0.70272241  0.69273857     0.01000
F2940       F  0.55839192  0.64788246  0.68422174    -0.13400
F2941       F  0.52311166  0.70053297  0.62235121    -0.13900
C2942       C  0.53014772  0.68667825  0.70698366     0.15900
C2943       C  0.52594735  0.70258604  0.72320582     0.25300
C2944       C  0.54602919  0.73461412  0.72547500    -0.41000
C2945       C  0.57263656  0.74966560  0.71290875     0.32200
C2946       C  0.57663789  0.73379382  0.69651401     0.14000
F2947       F  0.50845897  0.65654928  0.70380710    -0.13400
F2948       F  0.59265643  0.78052745  0.71494229    -0.13900
F2949       F  0.50079720  0.68727764  0.73571484    -0.16200
F2950       F  0.60048231  0.74952726  0.68311756    -0.14700
F2951       F  0.54274526  0.73029974  0.65861183    -0.14700
F2952       F  0.53829969  0.61768539  0.64763399    -0.16100
loop_ 
_geom_bond_atom_site_label_1 
_geom_bond_atom_site_label_2 
_geom_bond_distance 
_geom_bond_site_symmetry_2 
_ccdc_geom_bond_type 
O1           C16   1.272       .  A
O1           Al9   1.914       .  S
C2           O12   1.261       .  A
C2            O3   1.263       .  A
C2         C2937   1.470       .  S
O3           Al5   1.899       .  S
O4            C6   1.255       .  A
O4           Al5   1.905       .  S
Al5          O13   1.884       .  S
Al5          O15   1.921       .  S
Al5          O14   1.770       .  S
C6           O19   1.254       .  A
C6         C2864   1.488       .  S
O7           C17   1.271       .  A
O7           Al9   1.924       .  S
O8           C21   1.262       .  A
O8          Al18   1.917       .  S
Al9          O22   1.921       .  S
Al9          O19   1.903       .  S
Al9          O14   1.779       .  S
O10          C17   1.269       .  A
O10         Al18   1.922       .  S
O11          C20   1.258       .  A
O11         Al18   1.899       .  S
O12         Al18   1.897       .  S
O13          C20   1.256       .  A
O14         Al18   1.783       .  S
O15          C16   1.271       .  A
C16        C2844   1.469       .  S
C17        C2877   1.479       .  S
C20        C2924   1.478       .  S
C21          O22   1.261       .  A
C21        C2904   1.492       .  S
O23          C38   1.274       .  A
O23         Al31   1.922       .  S
C24          O34   1.258       .  A
C24          O25   1.261       .  A
C24        C2824   1.474       .  S
O25         Al27   1.896       .  S
O26          C28   1.254       .  A
O26         Al27   1.904       .  S
Al27         O35   1.882       .  S
Al27         O37   1.924       .  S
Al27         O36   1.773       .  S
C28          O41   1.257       .  A
C28        C2777   1.490       .  S
O29          C39   1.273       .  A
O29         Al31   1.924       .  S
O30          C43   1.259       .  A
O30         Al40   1.911       .  S
Al31         O44   1.920       .  S
Al31         O41   1.921       .  S
Al31         O36   1.781       .  S
O32          C39   1.271       .  A
O32         Al40   1.925       .  S
O33          C42   1.261       .  A
O33         Al40   1.911       .  S
O34         Al40   1.894       .  S
O35          C42   1.256       .  A
O36         Al40   1.785       .  S
O37          C38   1.271       .  A
C38        C2737   1.473       .  S
C39        C2884   1.474       .  S
C42        C2804   1.485       .  S
C43          O44   1.259       .  A
C43        C2757   1.494       .  S
O45          C60   1.258       .  A
O45         Al53   1.889       .  S
C46          O56   1.263       .  A
C46          O47   1.270       .  A
C46        C2697   1.478       .  S
O47         Al49   1.939       .  S
O48          C50   1.253       .  A
O48         Al49   1.857       .  S
Al49         O57   1.907       .  S
Al49         O59   1.923       .  S
Al49         O58   1.784       .  S
C50          O63   1.269       .  A
C50        C2684   1.471       .  S
O51          C61   1.259       .  A
O51         Al53   1.914       .  S
O52          C65   1.259       .  A
O52         Al62   1.861       .  S
Al53         O66   1.960       .  S
Al53         O63   1.951       .  S
Al53         O58   1.787       .  S
O54          C61   1.257       .  A
O54         Al62   1.905       .  S
O55          C64   1.258       .  A
O55         Al62   1.900       .  S
O56         Al62   1.876       .  S
O57          C64   1.258       .  A
O58         Al62   1.770       .  S
O59          C60   1.264       .  A
C60        C2764   1.488       .  S
C61        C2664   1.492       .  S
C64        C2717   1.468       .  S
C65          O66   1.274       .  A
C65        C2637   1.467       .  S
O67          C82   1.257       .  A
O67         Al75   1.880       .  S
C68          O78   1.262       .  A
C68          O69   1.274       .  A
C68        C2617   1.487       .  S
O69         Al71   1.952       .  S
O70          C72   1.253       .  A
O70         Al71   1.857       .  S
Al71         O79   1.902       .  S
Al71         O81   1.930       .  S
Al71         O80   1.785       .  S
C72          O85   1.268       .  A
C72        C2677   1.476       .  S
O73          C83   1.258       .  A
O73         Al75   1.912       .  S
O74          C87   1.259       .  A
O74         Al84   1.865       .  S
Al75         O88   1.972       .  S
Al75         O85   1.948       .  S
Al75         O80   1.789       .  S
O76          C83   1.257       .  A
O76         Al84   1.908       .  S
O77          C86   1.256       .  A
O77         Al84   1.895       .  S
O78         Al84   1.871       .  S
O79          C86   1.255       .  A
O80         Al84   1.772       .  S
O81          C82   1.265       .  A
C82        C2564   1.481       .  S
C83        C2577   1.493       .  S
C86        C2604   1.469       .  S
C87          O88   1.277       .  A
C87        C2537   1.473       .  S
O89         C104   1.274       .  A
O89         Al97   1.932       .  S
C90         O100   1.261       .  A
C90          O91   1.262       .  A
C90        C2504   1.477       .  S
O91         Al93   1.895       .  S
O92          C94   1.256       .  A
O92         Al93   1.907   1_545  S
Al93        O101   1.881       .  S
Al93        O103   1.913       .  S
Al93        O102   1.771       .  S
C94         O107   1.255   1_545  A
C94        C2457   1.487       .  S
O95         C105   1.272       .  A
O95         Al97   1.934       .  S
O96         C109   1.262       .  A
O96        Al106   1.919       .  S
Al97        O110   1.915       .  S
Al97        O107   1.907       .  S
Al97        O102   1.780       .  S
O98         C105   1.267       .  A
O98        Al106   1.924       .  S
O99         C108   1.260       .  A
O99        Al106   1.909       .  S
O100       Al106   1.905       .  S
O101        C108   1.256       .  A
O102       Al106   1.790       .  S
O103        C104   1.269       .  A
C104       C2437   1.480       .  S
C105       C2484   1.480   1_565  S
C108       C2517   1.479       .  S
C109        O110   1.260       .  A
C109       C2557   1.483       .  S
O111        C126   1.279       .  A
O111       Al119   1.938       .  S
C112        O122   1.259       .  A
C112        O113   1.261       .  A
C112       C2424   1.468       .  S
O113       Al115   1.885       .  S
O114        C116   1.254       .  A
O114       Al115   1.910       .  S
Al115       O123   1.882       .  S
Al115       O125   1.906       .  S
Al115       O124   1.772       .  S
C116        O129   1.252       .  A
C116       C2377   1.493       .  S
O117        C127   1.276       .  A
O117       Al119   1.939       .  S
O118        C131   1.260       .  A
O118       Al128   1.910       .  S
Al119       O132   1.916       .  S
Al119       O129   1.902       .  S
Al119       O124   1.779       .  S
O120        C127   1.268       .  A
O120       Al128   1.919       .  S
O121        C130   1.258       .  A
O121       Al128   1.906       .  S
O122       Al128   1.897       .  S
O123        C130   1.255       .  A
O124       Al128   1.790       .  S
O125        C126   1.270       .  A
C126       C2337   1.478       .  S
C127       C2477   1.483       .  S
C130       C2404   1.484       .  S
C131        O132   1.259       .  A
C131       C2364   1.487       .  S
O133        C148   1.258       .  A
O133       Al141   1.885       .  S
C134        O144   1.263       .  A
C134        O135   1.270       .  A
C134       C2297   1.474       .  S
O135       Al137   1.938       .  S
O136        C138   1.254       .  A
O136       Al137   1.860       .  S
Al137       O145   1.899       .  S
Al137       O147   1.915       .  S
Al137       O146   1.781       .  S
C138        O151   1.273       .  A
C138       C2284   1.488       .  S
O139        C149   1.262       .  A
O139       Al141   1.922       .  S
O140        C153   1.259       .  A
O140       Al150   1.860       .  S
Al141       O154   1.974       .  S
Al141       O151   1.967       .  S
Al141       O146   1.786       .  S
O142        C149   1.258       .  A
O142       Al150   1.903       .  S
O143        C152   1.258       .  A
O143       Al150   1.905       .  S
O144       Al150   1.877       .  S
O145        C152   1.256       .  A
O146       Al150   1.770       .  S
O147        C148   1.262       .  A
C148       C2237   1.488       .  S
C149       C2264   1.495       .  S
C152       C2317   1.473       .  S
C153        O154   1.277       .  A
C153       C2217   1.474       .  S
O155        C170   1.255       .  A
O155       Al163   1.884       .  S
C156        O166   1.265       .  A
C156        O157   1.268       .  A
C156       C2204   1.478       .  S
O157       Al159   1.937       .  S
O158        C160   1.257       .  A
O158       Al159   1.867       .  S
Al159       O167   1.907       .  S
Al159       O169   1.926       .  S
Al159       O168   1.789       .  S
C160        O173   1.273       .  A
C160       C2277   1.482       .  S
O161        C171   1.258       .  A
O161       Al163   1.910       .  S
O162        C175   1.259       .  A
O162       Al172   1.860       .  S
Al163       O176   1.969       .  S
Al163       O173   1.961       .  S
Al163       O168   1.788       .  S
O164        C171   1.257       .  A
O164       Al172   1.903       .  S
O165        C174   1.260       .  A
O165       Al172   1.900       .  S
O166       Al172   1.896       .  S
O167        C174   1.260       .  A
O168       Al172   1.773       .  S
O169        C170   1.262       .  A
C170       C2897   1.495       .  S
C171       C2157   1.495       .  S
C174       C2184   1.469       .  S
C175        O176   1.275       .  A
C175       C2144   1.476       .  S
O177        C192   1.274       .  A
O177       Al185   1.918       .  S
C178        O188   1.259       .  A
C178        O179   1.263       .  A
C178       C2124   1.469       .  S
O179       Al181   1.895       .  S
O180        C182   1.254       .  A
O180       Al181   1.905       .  S
Al181       O189   1.886       .  S
Al181       O191   1.918       .  S
Al181       O190   1.769       .  S
C182        O195   1.255       .  A
C182       C2057   1.493       .  S
O183        C193   1.276       .  A
O183       Al185   1.934       .  S
O184        C197   1.261       .  A
O184       Al194   1.912       .  S
Al185       O198   1.915       .  S
Al185       O195   1.913       .  S
Al185       O190   1.779       .  S
O186        C193   1.270       .  A
O186       Al194   1.925       .  S
O187        C196   1.259       .  A
O187       Al194   1.907       .  S
O188       Al194   1.891       .  S
O189        C196   1.255       .  A
O190       Al194   1.782       .  S
O191        C192   1.272       .  A
C192       C2017   1.473       .  S
C193       C2077   1.484       .  S
C196       C2097   1.484       .  S
C197        O198   1.260       .  A
C197       C2037   1.489       .  S
O199        C214   1.271       .  A
O199       Al207   1.925       .  S
C200        O210   1.262       .  A
C200        O201   1.266       .  A
C200       C2004   1.467       .  S
O201       Al203   1.908       .  S
O202        C204   1.256       .  A
O202       Al203   1.899       .  S
Al203       O211   1.898       .  S
Al203       O213   1.914       .  S
Al203       O212   1.771       .  S
C204        O217   1.257       .  A
C204       C1964   1.489       .  S
O205        C215   1.271       .  A
O205       Al207   1.938       .  S
O206        C219   1.260       .  A
O206       Al216   1.895       .  S
Al207       O220   1.933       .  S
Al207       O217   1.913       .  S
Al207       O212   1.781       .  S
O208        C215   1.263       .  A
O208       Al216   1.919       .  S
O209        C218   1.255       .  A
O209       Al216   1.889       .  S
O210       Al216   1.893       .  S
O211        C218   1.257       .  A
O212       Al216   1.784       .  S
O213        C214   1.268       .  A
C214       C1937   1.473       .  S
C215       C2084   1.478       .  S
C218       C1984   1.483       .  S
C219        O220   1.265       .  A
C219       C2244   1.475       .  S
O221        C236   1.256       .  A
O221       Al229   1.866       .  S
C222        O232   1.261       .  A
C222        O223   1.273   1_565  A
C222       C1917   1.485       .  S
O223       Al225   1.953       .  S
O224        C226   1.253       .  A
O224       Al225   1.856   1_565  S
Al225       O233   1.901       .  S
Al225       O235   1.940       .  S
Al225       O234   1.781       .  S
C226        O239   1.268       .  A
C226       C1884   1.472       .  S
O227        C237   1.259       .  A
O227       Al229   1.900   1_565  S
O228        C241   1.258       .  A
O228       Al238   1.868       .  S
Al229       O242   1.967       .  S
Al229       O239   1.949   1_545  S
Al229       O234   1.781       .  S
O230        C237   1.260       .  A
O230       Al238   1.909   1_565  S
O231        C240   1.258       .  A
O231       Al238   1.892       .  S
O232       Al238   1.872   1_565  S
O233        C240   1.257       .  A
O234       Al238   1.767       .  S
O235        C236   1.268       .  A
C236       C2044   1.484       .  S
C237       C1857   1.485       .  S
C240       C1897   1.465       .  S
C241        O242   1.274       .  A
C241       C1837   1.475       .  S
O243        C258   1.256       .  A
O243       Al251   1.875       .  S
C244        O254   1.262       .  A
C244        O245   1.269       .  A
C244       C1797   1.485       .  S
O245       Al247   1.942       .  S
O246        C248   1.252       .  A
O246       Al247   1.849       .  S
Al247       O255   1.888       .  S
Al247       O257   1.928       .  S
Al247       O256   1.783       .  S
C248        O261   1.270       .  A
C248       C1877   1.471       .  S
O249        C259   1.260       .  A
O249       Al251   1.908       .  S
O250        C263   1.259       .  A
O250       Al260   1.867       .  S
Al251       O264   1.963       .  S
Al251       O261   1.955       .  S
Al251       O256   1.783       .  S
O252        C259   1.261       .  A
O252       Al260   1.912       .  S
O253        C262   1.261       .  A
O253       Al260   1.904       .  S
O254       Al260   1.877       .  S
O255        C262   1.255       .  A
O256       Al260   1.766       .  S
O257        C258   1.265       .  A
C258       C2357   1.490       .  S
C259       C1777   1.492       .  S
C262       C1824   1.464       .  S
C263        O264   1.274       .  A
C263       C1764   1.479       .  S
O265        C280   1.258       .  A
O265       Al273   1.880       .  S
C266        O276   1.263       .  A
C266        O267   1.274       .  A
C266       C2104   1.483       .  S
O267       Al269   1.956       .  S
O268        C270   1.253       .  A
O268       Al269   1.856       .  S
Al269       O277   1.896       .  S
Al269       O279   1.938       .  S
Al269       O278   1.783       .  S
C270        O283   1.271       .  A
C270       C1717   1.485       .  S
O271        C281   1.259       .  A
O271       Al273   1.911       .  S
O272        C285   1.259       .  A
O272       Al282   1.864       .  S
Al273       O286   1.978       .  S
Al273       O283   1.965       .  S
Al273       O278   1.787       .  S
O274        C281   1.258       .  A
O274       Al282   1.902       .  S
O275        C284   1.257       .  A
O275       Al282   1.896       .  S
O276       Al282   1.880       .  S
O277        C284   1.255       .  A
O278       Al282   1.771       .  S
O279        C280   1.266       .  A
C280       C1677   1.499       .  S
C281       C1704   1.489       .  S
C284       C1744   1.463       .  S
C285        O286   1.277       .  A
C285       C2164   1.477       .  S
O287        C302   1.256       .  A
O287       Al295   1.874       .  S
C288        O298   1.261       .  A
C288        O289   1.271       .  A
C288       C1657   1.487       .  S
O289       Al291   1.945       .  S
O290        C292   1.252       .  A
O290       Al291   1.857       .  S
Al291       O299   1.893       .  S
Al291       O301   1.937       .  S
Al291       O300   1.784       .  S
C292        O305   1.271       .  A
C292       C1724   1.478   1_565  S
O293        C303   1.258       .  A
O293       Al295   1.902       .  S
O294        C307   1.258       .  A
O294       Al304   1.859       .  S
Al295       O308   1.971       .  S
Al295       O305   1.962       .  S
Al295       O300   1.786       .  S
O296        C303   1.261       .  A
O296       Al304   1.918       .  S
O297        C306   1.260       .  A
O297       Al304   1.912       .  S
O298       Al304   1.877       .  S
O299        C306   1.256       .  A
O300       Al304   1.773       .  S
O301        C302   1.266       .  A
C302       C1637   1.492       .  S
C303       C2224   1.489   1_565  S
C306       C2817   1.470       .  S
C307        O308   1.275       .  A
C307       C1617   1.482       .  S
O309        C324   1.257       .  A
O309       Al317   1.887       .  S
C310        O320   1.265       .  A
C310        O311   1.275       .  A
C310       C1597   1.493       .  S
O311       Al313   1.959       .  S
O312        C314   1.253       .  A
O312       Al313   1.858       .  S
Al313       O321   1.905       .  S
Al313       O323   1.932       .  S
Al313       O322   1.787       .  S
C314        O327   1.267       .  A
C314       C1557   1.477       .  S
O315        C325   1.257       .  A
O315       Al317   1.916       .  S
O316        C329   1.262       .  A
O316       Al326   1.865       .  S
Al317       O330   1.965       .  S
Al317       O327   1.942       .  S
Al317       O322   1.795       .  S
O318        C325   1.254       .  A
O318       Al326   1.895       .  S
O319        C328   1.254       .  A
O319       Al326   1.890       .  S
O320       Al326   1.880       .  S
O321        C328   1.255       .  A
O322       Al326   1.774       .  S
O323        C324   1.266       .  A
C324       C1577   1.491       .  S
C325       C1757   1.491       .  S
C328       C1997   1.472       .  S
C329        O330   1.276       .  A
C329       C1544   1.469       .  S
O331        C346   1.261       .  A
O331       Al339   1.883       .  S
C332        O342   1.260       .  A
C332        O333   1.268       .  A
C332       C2524   1.483       .  S
O333       Al335   1.936       .  S
O334        C336   1.253       .  A
O334       Al335   1.861       .  S
Al335       O343   1.885       .  S
Al335       O345   1.942       .  S
Al335       O344   1.778       .  S
C336        O349   1.268       .  A
C336       C1564   1.472   1_655  S
O337        C347   1.263       .  A
O337       Al339   1.906       .  S
O338        C351   1.256       .  A
O338       Al348   1.872       .  S
Al339       O352   1.953       .  S
Al339       O349   1.953       .  S
Al339       O344   1.783       .  S
O340        C347   1.267       .  A
O340       Al348   1.933       .  S
O341        C350   1.263       .  A
O341       Al348   1.918       .  S
O342       Al348   1.880       .  S
O343        C350   1.255       .  A
O344       Al348   1.767       .  S
O345        C346   1.268       .  A
C346       C1477   1.488       .  S
C347       C1497   1.492   1_655  S
C350       C1517   1.469       .  S
C351        O352   1.269       .  A
C351       C1864   1.473       .  S
O353        C368   1.272       .  A
O353       Al361   1.922       .  S
C354        O364   1.260       .  A
C354        O355   1.264       .  A
C354       C2177   1.474       .  S
O355       Al357   1.904       .  S
O356        C358   1.255       .  A
O356       Al357   1.899       .  S
Al357       O365   1.889       .  S
Al357       O367   1.915       .  S
Al357       O366   1.772       .  S
C358        O371   1.259       .  A
C358       C1424   1.493       .  S
O359        C369   1.276       .  A
O359       Al361   1.947       .  S
O360        C373   1.260       .  A
O360       Al370   1.905       .  S
Al361       O374   1.928       .  S
Al361       O371   1.923       .  S
Al361       O366   1.782       .  S
O362        C369   1.269       .  A
O362       Al370   1.920       .  S
O363        C372   1.258       .  A
O363       Al370   1.899       .  S
O364       Al370   1.890       .  S
O365        C372   1.256       .  A
O366       Al370   1.779       .  S
O367        C368   1.268       .  A
C368       C2064   1.470       .  S
C369       C1437   1.500       .  S
C372       C1464   1.486       .  S
C373        O374   1.263       .  A
C373       C1484   1.490       .  S
O375        C390   1.274       .  A
O375       Al383   1.936       .  S
C376        O386   1.263       .  A
C376        O377   1.264       .  A
C376       C1404   1.490       .  S
O377       Al379   1.906       .  S
O378        C380   1.258       .  A
O378       Al379   1.903       .  S
Al379       O387   1.893       .  S
Al379       O389   1.910       .  S
Al379       O388   1.772       .  S
C380        O393   1.259       .  A
C380       C1944   1.495       .  S
O381        C391   1.279       .  A
O381       Al383   1.963       .  S
O382        C395   1.261       .  A
O382       Al392   1.908       .  S
Al383       O396   1.931       .  S
Al383       O393   1.927       .  S
Al383       O388   1.780       .  S
O384        C391   1.266       .  A
O384       Al392   1.909       .  S
O385        C394   1.256       .  A
O385       Al392   1.893       .  S
O386       Al392   1.902       .  S
O387        C394   1.257       .  A
O388       Al392   1.776       .  S
O389        C390   1.267       .  A
C390       C1384   1.474       .  S
C391       C1444   1.504       .  S
C394       C1804   1.484       .  S
C395        O396   1.263       .  A
C395       C1644   1.491       .  S
O397        C412   1.271       .  A
O397       Al405   1.929       .  S
C398        O408   1.259   1_655  A
C398        O399   1.264       .  A
C398       C1904   1.476       .  S
O399       Al401   1.904   1_655  S
O400        C402   1.259       .  A
O400       Al401   1.909   1_655  S
Al401       O409   1.896       .  S
Al401       O411   1.903       .  S
Al401       O410   1.770       .  S
C402        O415   1.259       .  A
C402       C1317   1.489       .  S
O403        C413   1.272       .  A
O403       Al405   1.940   1_655  S
O404        C417   1.259       .  A
O404       Al414   1.892       .  S
Al405       O418   1.928       .  S
Al405       O415   1.919   1_455  S
Al405       O410   1.778       .  S
O406        C413   1.265   1_455  A
O406       Al414   1.918       .  S
O407        C416   1.259       .  A
O407       Al414   1.905       .  S
O408       Al414   1.884       .  S
O409        C416   1.258       .  A
O410       Al414   1.782       .  S
O411        C412   1.266       .  A
C412       C2464   1.474       .  S
C413       C1344   1.482       .  S
C416       C1357   1.487       .  S
C417        O418   1.265       .  A
C417       C1304   1.486       .  S
O419        C434   1.273       .  A
O419       Al427   1.922       .  S
C420        O430   1.258       .  A
C420        O421   1.262       .  A
C420       C1284   1.469       .  S
O421       Al423   1.895       .  S
O422        C424   1.254       .  A
O422       Al423   1.901       .  S
Al423       O431   1.870       .  S
Al423       O433   1.910       .  S
Al423       O432   1.772       .  S
C424        O437   1.258       .  A
C424       C2344   1.492       .  S
O425        C435   1.274       .  A
O425       Al427   1.940       .  S
O426        C439   1.261       .  A
O426       Al436   1.908       .  S
Al427       O440   1.934       .  S
Al427       O437   1.923       .  S
Al427       O432   1.777       .  S
O428        C435   1.267       .  A
O428       Al436   1.918       .  S
O429        C438   1.260       .  A
O429       Al436   1.910       .  S
O430       Al436   1.893       .  S
O431        C438   1.253       .  A
O432       Al436   1.790       .  S
O433        C434   1.268       .  A
C434       C1257   1.466       .  S
C435       C1337   1.483       .  S
C438       C2704   1.476       .  S
C439        O440   1.265       .  A
C439       C1584   1.487       .  S
O441        C456   1.256       .  A
O441       Al449   1.868       .  S
C442        O452   1.263       .  A
C442        O443   1.271       .  A
C442       C2917   1.476       .  S
O443       Al445   1.941       .  S
O444        C446   1.253       .  A
O444       Al445   1.860       .  S
Al445       O453   1.909       .  S
Al445       O455   1.932       .  S
Al445       O454   1.782       .  S
C446        O459   1.268       .  A
C446       C1217   1.471       .  S
O447        C457   1.259       .  A
O447       Al449   1.905       .  S
O448        C461   1.260       .  A
O448       Al458   1.871       .  S
Al449       O462   1.969       .  S
Al449       O459   1.952       .  S
Al449       O454   1.785       .  S
O450        C457   1.259       .  A
O450       Al458   1.904       .  S
O451        C460   1.258       .  A
O451       Al458   1.896       .  S
O452       Al458   1.877       .  S
O453        C460   1.259       .  A
O454       Al458   1.768       .  S
O455        C456   1.266       .  A
C456       C1297   1.479       .  S
C457       C1197   1.486       .  S
C460       C1237   1.473       .  S
C461        O462   1.275       .  A
C461       C2584   1.477       .  S
O463        C478   1.256       .  A
O463       Al471   1.874       .  S
C464        O474   1.262       .  A
C464        O465   1.271       .  A
C464       C1177   1.480       .  S
O465       Al467   1.952       .  S
O466        C468   1.252       .  A
O466       Al467   1.853       .  S
Al467       O475   1.898       .  S
Al467       O477   1.940       .  S
Al467       O476   1.784       .  S
C468        O481   1.269       .  A
C468       C1224   1.469       .  S
O469        C479   1.255       .  A
O469       Al471   1.889       .  S
O470        C483   1.258       .  A
O470       Al480   1.869       .  S
Al471       O484   1.972       .  S
Al471       O481   1.953       .  S
Al471       O476   1.784       .  S
O472        C479   1.261       .  A
O472       Al480   1.921       .  S
O473        C482   1.261       .  A
O473       Al480   1.904       .  S
O474       Al480   1.876       .  S
O475        C482   1.258       .  A
O476       Al480   1.772       .  S
O477        C478   1.267       .  A
C478       C1157   1.490       .  S
C479       C2644   1.485       .  S
C482       C2417   1.471       .  S
C483        O484   1.275       .  A
C483       C1144   1.480       .  S
O485        C500   1.271       .  A
O485       Al493   1.915   1_545  S
C486        O496   1.259       .  A
C486        O487   1.264       .  A
C486       C1117   1.472       .  S
O487       Al489   1.906       .  S
O488        C490   1.253       .  A
O488       Al489   1.893       .  S
Al489       O497   1.874   1_565  S
Al489       O499   1.928   1_565  S
Al489       O498   1.765   1_565  S
C490        O503   1.259       .  A
C490       C2744   1.493       .  S
O491        C501   1.273       .  A
O491       Al493   1.923       .  S
O492        C505   1.261       .  A
O492       Al502   1.911       .  S
Al493       O506   1.928   1_565  S
Al493       O503   1.934       .  S
Al493       O498   1.780   1_565  S
O494        C501   1.270   1_545  A
O494       Al502   1.927       .  S
O495        C504   1.260       .  A
O495       Al502   1.909       .  S
O496       Al502   1.892   1_565  S
O497        C504   1.254       .  A
O498       Al502   1.781       .  S
O499        C500   1.272       .  A
C500       C1077   1.472       .  S
C501       C1097   1.475       .  S
C504       C2304   1.481       .  S
C505        O506   1.263       .  A
C505       C1164   1.486       .  S
O507        C522   1.271       .  A
O507       Al515   1.913       .  S
C508        O518   1.260       .  A
C508        O509   1.262       .  A
C508       C2597   1.479       .  S
O509       Al511   1.895       .  S
O510        C512   1.254       .  A
O510       Al511   1.899       .  S
Al511       O519   1.877       .  S
Al511       O521   1.918       .  S
Al511       O520   1.766       .  S
C512        O525   1.259       .  A
C512       C1044   1.488       .  S
O513        C523   1.272       .  A
O513       Al515   1.921       .  S
O514        C527   1.264       .  A
O514       Al524   1.924       .  S
Al515       O528   1.922       .  S
Al515       O525   1.928       .  S
Al515       O520   1.779       .  S
O516        C523   1.270       .  A
O516       Al524   1.927       .  S
O517        C526   1.264       .  A
O517       Al524   1.926       .  S
O518       Al524   1.897       .  S
O519        C526   1.255       .  A
O520       Al524   1.778       .  S
O521        C522   1.270       .  A
C522       C2857   1.466       .  S
C523       C1104   1.472       .  S
C526       C1057   1.490       .  S
C527        O528   1.262       .  A
C527       C1684   1.492       .  S
O529        C544   1.257       .  A
O529       Al537   1.887       .  S
C530        O540   1.262       .  A
C530        O531   1.271       .  A
C530       C1064   1.474       .  S
O531       Al533   1.948       .  S
O532        C534   1.253       .  A
O532       Al533   1.859       .  S
Al533       O541   1.895       .  S
Al533       O543   1.921       .  S
Al533       O542   1.782       .  S
C534        O547   1.267       .  A
C534       C1017   1.472       .  S
O535        C545   1.261       .  A
O535       Al537   1.916       .  S
O536        C549   1.260       .  A
O536       Al546   1.865       .  S
Al537       O550   1.957       .  S
Al537       O547   1.943       .  S
Al537       O542   1.792       .  S
O538        C545   1.258       .  A
O538       Al546   1.905       .  S
O539        C548   1.259       .  A
O539       Al546   1.908       .  S
O540       Al546   1.882       .  S
O541        C548   1.254       .  A
O542       Al546   1.771       .  S
O543        C544   1.264       .  A
C544        C997   1.473       .  S
C545       C2544   1.491       .  S
C548       C2944   1.472       .  S
C549        O550   1.273       .  A
C549       C1204   1.469       .  S
O551        C566   1.260       .  A
O551       Al559   1.886       .  S
C552        O562   1.262       .  A
C552        O553   1.273       .  A
C552       C2397   1.477       .  S
O553       Al555   1.954       .  S
O554        C556   1.251       .  A
O554       Al555   1.854       .  S
Al555       O563   1.893       .  S
Al555       O565   1.936       .  S
Al555       O564   1.787       .  S
C556        O569   1.267       .  A
C556       C1024   1.466       .  S
O557        C567   1.262       .  A
O557       Al559   1.924       .  S
O558        C571   1.260       .  A
O558       Al568   1.874       .  S
Al559       O572   1.960       .  S
Al559       O569   1.944       .  S
Al559       O564   1.787       .  S
O560        C567   1.259       .  A
O560       Al568   1.904       .  S
O561        C570   1.257       .  A
O561       Al568   1.900       .  S
O562       Al568   1.874       .  S
O563        C570   1.254       .  A
O564       Al568   1.770       .  S
O565        C566   1.267       .  A
C566        C984   1.494       .  S
C567       C1137   1.495       .  S
C570       C1277   1.466       .  S
C571        O572   1.274       .  A
C571       C2657   1.473       .  S
O573        C588   1.273       .  A
O573       Al581   1.924       .  S
C574        O584   1.260       .  A
C574        O575   1.262       .  A
C574       C1244   1.473       .  S
O575       Al577   1.896       .  S
O576        C578   1.254       .  A
O576       Al577   1.897       .  S
Al577       O585   1.882       .  S
Al577       O587   1.918       .  S
Al577       O586   1.770       .  S
C578        O591   1.256       .  A
C578       C2837   1.485       .  S
O579        C589   1.273       .  A
O579       Al581   1.928       .  S
O580        C593   1.261       .  A
O580       Al590   1.913       .  S
Al581       O594   1.915       .  S
Al581       O591   1.916       .  S
Al581       O586   1.781       .  S
O582        C589   1.269       .  A
O582       Al590   1.921       .  S
O583        C592   1.259       .  A
O583       Al590   1.905       .  S
O584       Al590   1.901       .  S
O585        C592   1.256       .  A
O586       Al590   1.782       .  S
O587        C588   1.270       .  A
C588       C1037   1.474       .  S
C589        C957   1.478       .  S
C592       C2624   1.484       .  S
C593        O594   1.260       .  A
C593        C944   1.484       .  S
O595        C610   1.274       .  A
O595       Al603   1.923       .  S
C596        O606   1.261       .  A
C596        O597   1.263       .  A
C596       C2324   1.473   1_655  S
O597       Al599   1.896       .  S
O598        C600   1.255       .  A
O598       Al599   1.907   1_455  S
Al599       O607   1.884       .  S
Al599       O609   1.917       .  S
Al599       O608   1.770       .  S
C600        O613   1.255       .  A
C600       C1084   1.494       .  S
O601        C611   1.273   1_455  A
O601       Al603   1.930   1_455  S
O602        C615   1.261       .  A
O602       Al612   1.916       .  S
Al603       O616   1.925       .  S
Al603       O613   1.916   1_655  S
Al603       O608   1.781       .  S
O604        C611   1.269       .  A
O604       Al612   1.924       .  S
O605        C614   1.258       .  A
O605       Al612   1.902       .  S
O606       Al612   1.897       .  S
O607        C614   1.256       .  A
O608       Al612   1.784       .  S
O609        C610   1.272       .  A
C610       C2784   1.477       .  S
C611        C964   1.478   1_655  S
C614       C1664   1.485       .  S
C615        O616   1.261       .  A
C615        C977   1.491       .  S
O617        C632   1.268       .  A
O617       Al625   1.925       .  S
C618        O628   1.261       .  A
C618        O619   1.261       .  A
C618       C2724   1.486       .  S
O619       Al621   1.896       .  S
O620        C622   1.259       .  A
O620       Al621   1.902       .  S
Al621       O629   1.888       .  S
Al621       O631   1.913       .  S
Al621       O630   1.768       .  S
C622        O635   1.261       .  A
C622       C1264   1.487       .  S
O623        C633   1.269       .  A
O623       Al625   1.921       .  S
O624        C637   1.261       .  A
O624       Al634   1.900       .  S
Al625       O638   1.913       .  S
Al625       O635   1.919       .  S
Al625       O630   1.776       .  S
O626        C633   1.267       .  A
O626       Al634   1.921       .  S
O627        C636   1.264       .  A
O627       Al634   1.923       .  S
O628       Al634   1.904       .  S
O629        C636   1.259       .  A
O630       Al634   1.781       .  S
O631        C632   1.264       .  A
C632       C2384   1.471       .  S
C633        C897   1.476       .  S
C636       C1184   1.483       .  S
C637        O638   1.261       .  A
C637        C924   1.477       .  S
O639        C654   1.274       .  A
O639       Al647   1.926       .  S
C640        O650   1.259       .  A
C640        O641   1.264       .  A
C640       C1524   1.474       .  S
O641       Al643   1.903       .  S
O642        C644   1.255       .  A
O642       Al643   1.903       .  S
Al643       O651   1.879       .  S
Al643       O653   1.917       .  S
Al643       O652   1.770       .  S
C644        O657   1.257       .  A
C644       C2444   1.496       .  S
O645        C655   1.273       .  A
O645       Al647   1.936       .  S
O646        C659   1.262       .  A
O646       Al656   1.910       .  S
Al647       O660   1.926       .  S
Al647       O657   1.923       .  S
Al647       O652   1.779       .  S
O648        C655   1.266       .  A
O648       Al656   1.917       .  S
O649        C658   1.260       .  A
O649       Al656   1.913       .  S
O650       Al656   1.890       .  S
O651        C658   1.255       .  A
O652       Al656   1.789       .  S
O653        C654   1.270       .  A
C654       C1324   1.476       .  S
C655        C904   1.476       .  S
C658       C1924   1.481       .  S
C659        O660   1.264       .  A
C659       C1004   1.489       .  S
O661        C676   1.255       .  A
O661       Al669   1.882       .  S
C662        O672   1.262       .  A
C662        O663   1.264       .  A
C662       C1977   1.477       .  S
O663       Al665   1.923       .  S
O664        C666   1.256       .  A
O664       Al665   1.863       .  S
Al665       O673   1.903       .  S
Al665       O675   1.919       .  S
Al665       O674   1.788       .  S
C666        O679   1.272       .  A
C666        C877   1.471       .  S
O667        C677   1.258       .  A
O667       Al669   1.898       .  S
O668        C681   1.257       .  A
O668       Al678   1.870       .  S
Al669       O682   1.953       .  S
Al669       O679   1.961       .  S
Al669       O674   1.786       .  S
O670        C677   1.260       .  A
O670       Al678   1.909       .  S
O671        C680   1.263       .  A
O671       Al678   1.910       .  S
O672       Al678   1.892       .  S
O673        C680   1.261       .  A
O674       Al678   1.771       .  S
O675        C676   1.260       .  A
C676        C917   1.472       .  S
C677       C1537   1.478       .  S
C680       C1397   1.465       .  S
C681        O682   1.270       .  A
C681       C1784   1.470       .  S
O683        C698   1.257       .  A
O683       Al691   1.880       .  S
C684        O694   1.263       .  A
C684        O685   1.271       .  A
C684       C1364   1.485       .  S
O685       Al687   1.945       .  S
O686        C688   1.252       .  A
O686       Al687   1.854       .  S
Al687       O695   1.905       .  S
Al687       O697   1.928       .  S
Al687       O696   1.785       .  S
C688        O701   1.271       .  A
C688        C884   1.473       .  S
O689        C699   1.259       .  A
O689       Al691   1.912       .  S
O690        C703   1.259       .  A
O690       Al700   1.862       .  S
Al691       O704   1.977       .  S
Al691       O701   1.960       .  S
Al691       O696   1.786       .  S
O692        C699   1.258       .  A
O692       Al700   1.909       .  S
O693        C702   1.259       .  A
O693       Al700   1.904       .  S
O694       Al700   1.878       .  S
O695        C702   1.258       .  A
O696       Al700   1.770       .  S
O697        C698   1.265       .  A
C698        C857   1.492       .  S
C699       C1844   1.494       .  S
C702       C2497   1.472       .  S
C703        O704   1.277       .  A
C703       C1504   1.481       .  S
O705        C720   1.255       .  A
O705       Al713   1.875       .  S
C706        O716   1.265       .  A
C706        O707   1.269       .  A
C706       C1457   1.479       .  S
O707       Al709   1.935       .  S
O708        C710   1.253       .  A
O708       Al709   1.857       .  S
Al709       O717   1.897       .  S
Al709       O719   1.925       .  S
Al709       O718   1.784       .  S
C710        O723   1.269       .  A
C710        C844   1.473       .  S
O711        C721   1.258       .  A
O711       Al713   1.905       .  S
O712        C725   1.260       .  A
O712       Al722   1.869       .  S
Al713       O726   1.955       .  S
Al713       O723   1.949       .  S
Al713       O718   1.786       .  S
O714        C721   1.260       .  A
O714       Al722   1.914       .  S
O715        C724   1.260       .  A
O715       Al722   1.907       .  S
O716       Al722   1.889       .  S
O717        C724   1.257       .  A
O718       Al722   1.771       .  S
O719        C720   1.264       .  A
C720        C937   1.491       .  S
C721       C2137   1.493       .  S
C724       C2117   1.469       .  S
C725        O726   1.273       .  A
C725       C1697   1.471       .  S
O727        C742   1.256       .  A
O727       Al735   1.867       .  S
C728        O738   1.262       .  A
C728        O729   1.271       .  A
C728       C2797   1.482   1_455  S
O729       Al731   1.952       .  S
O730        C732   1.254   1_455  A
O730       Al731   1.857       .  S
Al731       O739   1.898       .  S
Al731       O741   1.943       .  S
Al731       O740   1.781       .  S
C732        O745   1.270   1_655  A
C732        C837   1.476       .  S
O733        C743   1.257       .  A
O733       Al735   1.896   1_655  S
O734        C747   1.258       .  A
O734       Al744   1.864       .  S
Al735       O748   1.975       .  S
Al735       O745   1.957       .  S
Al735       O740   1.781       .  S
O736        C743   1.263   1_455  A
O736       Al744   1.925       .  S
O737        C746   1.262       .  A
O737       Al744   1.911       .  S
O738       Al744   1.878       .  S
O739        C746   1.258       .  A
O740       Al744   1.767       .  S
O741        C742   1.267       .  A
C742        C824   1.484       .  S
C743       C1624   1.482       .  S
C746       C1124   1.470       .  S
C747        O748   1.275       .  A
C747       C2257   1.480       .  S
O749        C764   1.275       .  A
O749       Al757   1.916       .  S
C750        O760   1.258       .  A
C750        O751   1.266       .  A
C750       C1817   1.468       .  S
O751       Al753   1.905       .  S
O752        C754   1.253       .  A
O752       Al753   1.905       .  S
Al753       O761   1.890       .  S
Al753       O763   1.923       .  S
Al753       O762   1.771       .  S
C754        O767   1.253       .  A
C754       C1377   1.497       .  S
O755        C765   1.278       .  A
O755       Al757   1.947       .  S
O756        C769   1.259       .  A
O756       Al766   1.905       .  S
Al757       O770   1.921       .  S
Al757       O767   1.911       .  S
Al757       O762   1.779       .  S
O758        C765   1.271       .  A
O758       Al766   1.928       .  S
O759        C768   1.256       .  A
O759       Al766   1.904       .  S
O760       Al766   1.875       .  S
O761        C768   1.255       .  A
O762       Al766   1.785       .  S
O763        C764   1.273       .  A
C764       C1957   1.469       .  S
C765        C797   1.496       .  S
C768       C1604   1.488       .  S
C769        O770   1.261       .  A
C769        C817   1.488       .  S
O771        C786   1.272       .  A
O771       Al779   1.928       .  S
C772        O782   1.259       .  A
C772        O773   1.262       .  A
C772       C1737   1.477       .  S
O773       Al775   1.896       .  S
O774        C776   1.257       .  A
O774       Al775   1.901       .  S
Al775       O783   1.885       .  S
Al775       O785   1.915       .  S
Al775       O784   1.772       .  S
C776        O789   1.259       .  A
C776       C2024   1.488       .  S
O777        C787   1.272       .  A
O777       Al779   1.929       .  S
O778        C791   1.260       .  A
O778       Al788   1.913       .  S
Al779       O792   1.916       .  S
Al779       O789   1.918       .  S
Al779       O784   1.778       .  S
O780        C787   1.272       .  A
O780       Al788   1.939       .  S
O781        C790   1.263       .  A
O781       Al788   1.920       .  S
O782       Al788   1.891       .  S
O783        C790   1.256       .  A
O784       Al788   1.777       .  S
O785        C786   1.267       .  A
C786       C1417   1.472       .  S
C787        C804   1.485       .  S
C790       C2197   1.490       .  S
C791        O792   1.260       .  A
C791        C864   1.485       .  S
C793        C794   1.411       .  A
C793        C798   1.412       .  A
C793        F811   1.357       .  S
C794        C799   1.502       .  S
C794        C795   1.407       .  A
C795        C796   1.402       .  A
C795        F800   1.358       .  S
C796        C797   1.410       .  A
C796        F812   1.358       .  S
C797        C798   1.411       .  A
C798        F801   1.358       .  S
C799        C802   1.412   1_565  A
C799        C806   1.409   1_565  A
C802        C803   1.407       .  A
C802        F807   1.358   1_545  S
C803        C804   1.404       .  A
C803        F809   1.357       .  S
C804        C805   1.408       .  A
C805        C806   1.407       .  A
C805        F808   1.358       .  S
C806        F810   1.357       .  S
C813        C814   1.401       .  A
C813        C818   1.397       .  A
C813        F831   1.358       .  S
C814        C819   1.478       .  S
C814        C815   1.404       .  A
C815        C816   1.400       .  A
C815        F820   1.358       .  S
C816        C817   1.411       .  A
C816        F832   1.358       .  S
C817        C818   1.413       .  A
C818        F821   1.358       .  S
C819        C822   1.400       .  A
C819        C826   1.406       .  A
C822        C823   1.393       .  A
C822        F827   1.358       .  S
C823        C824   1.411       .  A
C823        F829   1.358       .  S
C824        C825   1.410       .  A
C825        C826   1.405       .  A
C825        F828   1.358       .  S
C826        F830   1.358       .  S
C833        C834   1.410       .  A
C833        C838   1.404       .  A
C833        F851   1.358       .  S
C834        C839   1.484       .  S
C834        C835   1.402       .  A
C835        C836   1.396       .  A
C835        F840   1.358       .  S
C836        C837   1.409       .  A
C836        F852   1.359       .  S
C837        C838   1.404       .  A
C838        F841   1.358       .  S
C839        C842   1.410       .  A
C839        C846   1.402       .  A
C842        C843   1.403       .  A
C842        F847   1.358       .  S
C843        C844   1.402       .  A
C843        F849   1.358       .  S
C844        C845   1.408       .  A
C845        C846   1.398       .  A
C845        F848   1.359       .  S
C846        F850   1.358       .  S
C853        C854   1.406       .  A
C853        C858   1.403       .  A
C853        F871   1.358       .  S
C854        C859   1.483       .  S
C854        C855   1.402       .  A
C855        C856   1.398       .  A
C855        F860   1.358       .  S
C856        C857   1.414       .  A
C856        F872   1.358       .  S
C857        C858   1.411       .  A
C858        F861   1.358       .  S
C859        C862   1.406       .  A
C859        C866   1.403       .  A
C862        C863   1.402       .  A
C862        F867   1.358       .  S
C863        C864   1.409       .  A
C863        F869   1.358       .  S
C864        C865   1.410       .  A
C865        C866   1.398       .  A
C865        F868   1.358       .  S
C866        F870   1.358       .  S
C873        C874   1.404       .  A
C873        C878   1.401       .  A
C873        F891   1.358       .  S
C874        C879   1.486       .  S
C874        C875   1.408       .  A
C875        C876   1.403       .  A
C875        F880   1.358       .  S
C876        C877   1.404       .  A
C876        F892   1.358       .  S
C877        C878   1.406       .  A
C878        F881   1.358       .  S
C879        C882   1.404       .  A
C879        C886   1.408       .  A
C882        C883   1.401       .  A
C882        F887   1.358       .  S
C883        C884   1.408       .  A
C883        F889   1.358       .  S
C884        C885   1.404       .  A
C885        C886   1.404       .  A
C885        F888   1.358       .  S
C886        F890   1.358       .  S
C893        C894   1.406       .  A
C893        C898   1.404       .  A
C893        F911   1.357       .  S
C894        C899   1.488       .  S
C894        C895   1.408       .  A
C895        C896   1.400       .  A
C895        F900   1.358       .  S
C896        C897   1.404       .  A
C896        F912   1.358       .  S
C897        C898   1.407       .  A
C898        F901   1.358       .  S
C899        C902   1.407       .  A
C899        C906   1.406       .  A
C902        C903   1.400       .  A
C902        F907   1.358       .  S
C903        C904   1.405       .  A
C903        F909   1.358       .  S
C904        C905   1.408       .  A
C905        C906   1.406       .  A
C905        F908   1.358       .  S
C906        F910   1.358       .  S
C913        C914   1.406       .  A
C913        C918   1.396       .  A
C913        F931   1.358       .  S
C914        C919   1.482       .  S
C914        C915   1.407       .  A
C915        C916   1.400       .  A
C915        F920   1.358       .  S
C916        C917   1.405       .  A
C916        F932   1.358       .  S
C917        C918   1.405       .  A
C918        F921   1.358       .  S
C919        C922   1.405       .  A
C919        C926   1.407   1_554  A
C922        C923   1.398       .  A
C922        F927   1.358       .  S
C923        C924   1.409   1_554  A
C923        F929   1.358       .  S
C924        C925   1.405       .  A
C925        C926   1.398       .  A
C925        F928   1.358       .  S
C926        F930   1.358       .  S
C933        C934   1.405       .  A
C933        C938   1.402       .  A
C933        F951   1.358   1_655  S
C934        C939   1.481   1_655  S
C934        C935   1.401       .  A
C935        C936   1.397       .  A
C935        F940   1.358       .  S
C936        C937   1.415       .  A
C936        F952   1.358       .  S
C937        C938   1.411       .  A
C938        F941   1.358       .  S
C939        C942   1.406       .  A
C939        C946   1.402       .  A
C942        C943   1.402       .  A
C942        F947   1.358       .  S
C943        C944   1.408       .  A
C943        F949   1.358       .  S
C944        C945   1.411       .  A
C945        C946   1.398       .  A
C945        F948   1.358       .  S
C946        F950   1.358       .  S
C953        C954   1.409       .  A
C953        C958   1.398       .  A
C953        F971   1.358       .  S
C954        C959   1.494       .  S
C954        C955   1.409       .  A
C955        C956   1.406       .  A
C955        F960   1.357       .  S
C956        C957   1.407       .  A
C956        F972   1.358       .  S
C957        C958   1.405       .  A
C958        F961   1.358       .  S
C959        C962   1.409       .  A
C959        C966   1.410       .  A
C962        C963   1.406       .  A
C962        F967   1.357       .  S
C963        C964   1.408       .  A
C963        F969   1.358       .  S
C964        C965   1.403       .  A
C965        C966   1.399       .  A
C965        F968   1.358   1_455  S
C966        F970   1.358       .  S
C973        C974   1.403       .  A
C973        C978   1.402       .  A
C973        F991   1.358       .  S
C974        C979   1.484       .  S
C974        C975   1.404       .  A
C975        C976   1.404       .  A
C975        F980   1.357       .  S
C976        C977   1.410       .  A
C976        F992   1.358       .  S
C977        C978   1.413       .  A
C978        F981   1.358       .  S
C979        C982   1.401       .  A
C979        C986   1.405       .  A
C982        C983   1.399       .  A
C982        F987   1.358       .  S
C983        C984   1.413       .  A
C983        F989   1.358       .  S
C984        C985   1.412       .  A
C985        C986   1.407       .  A
C985        F988   1.358       .  S
C986        F990   1.358       .  S
C993        C994   1.409       .  A
C993        C998   1.403       .  A
C993       F1011   1.358       .  S
C994        C999   1.492       .  S
C994        C995   1.410       .  A
C995        C996   1.401       .  A
C995       F1000   1.358       .  S
C996        C997   1.403       .  A
C996       F1012   1.358       .  S
C997        C998   1.403       .  A
C998       F1001   1.358       .  S
C999       C1002   1.409       .  A
C999       C1006   1.406       .  A
C1002      C1003   1.404       .  A
C1002      F1007   1.358       .  S
C1003      C1004   1.409       .  A
C1003      F1009   1.358       .  S
C1004      C1005   1.410       .  A
C1005      C1006   1.399       .  A
C1005      F1008   1.358       .  S
C1006      F1010   1.358       .  S
C1013      C1014   1.400       .  A
C1013      C1018   1.396       .  A
C1013      F1031   1.358       .  S
C1014      C1019   1.477       .  S
C1014      C1015   1.408       .  A
C1015      C1016   1.404       .  A
C1015      F1020   1.358       .  S
C1016      C1017   1.404       .  A
C1016      F1032   1.358       .  S
C1017      C1018   1.408       .  A
C1018      F1021   1.358       .  S
C1019      C1022   1.403   1_565  A
C1019      C1026   1.405       .  A
C1022      C1023   1.401       .  A
C1022      F1027   1.357       .  S
C1023      C1024   1.405       .  A
C1023      F1029   1.358       .  S
C1024      C1025   1.404       .  A
C1025      C1026   1.399   1_545  A
C1025      F1028   1.358       .  S
C1026      F1030   1.358       .  S
C1033      C1034   1.406       .  A
C1033      C1038   1.397       .  A
C1033      F1051   1.358       .  S
C1034      C1039   1.486       .  S
C1034      C1035   1.407       .  A
C1035      C1036   1.405       .  A
C1035      F1040   1.357       .  S
C1036      C1037   1.406       .  A
C1036      F1052   1.358       .  S
C1037      C1038   1.405       .  A
C1038      F1041   1.359       .  S
C1039      C1042   1.404       .  A
C1039      C1046   1.406       .  A
C1042      C1043   1.400       .  A
C1042      F1047   1.358       .  S
C1043      C1044   1.412       .  A
C1043      F1049   1.358       .  S
C1044      C1045   1.410       .  A
C1045      C1046   1.402       .  A
C1045      F1048   1.358       .  S
C1046      F1050   1.358       .  S
C1053      C1054   1.400       .  A
C1053      C1058   1.396       .  A
C1053      F1071   1.359       .  S
C1054      C1059   1.479       .  S
C1054      C1055   1.404       .  A
C1055      C1056   1.404       .  A
C1055      F1060   1.357       .  S
C1056      C1057   1.411       .  A
C1056      F1072   1.357       .  S
C1057      C1058   1.415       .  A
C1058      F1061   1.358       .  S
C1059      C1062   1.406       .  A
C1059      C1066   1.404       .  A
C1062      C1063   1.402       .  A
C1062      F1067   1.358       .  S
C1063      C1064   1.405       .  A
C1063      F1069   1.358       .  S
C1064      C1065   1.406       .  A
C1065      C1066   1.398       .  A
C1065      F1068   1.358       .  S
C1066      F1070   1.358       .  S
C1073      C1074   1.407       .  A
C1073      C1078   1.399       .  A
C1073      F1091   1.358       .  S
C1074      C1079   1.485       .  S
C1074      C1075   1.406       .  A
C1075      C1076   1.403       .  A
C1075      F1080   1.357       .  S
C1076      C1077   1.406       .  A
C1076      F1092   1.358       .  S
C1077      C1078   1.403       .  A
C1078      F1081   1.358       .  S
C1079      C1082   1.402       .  A
C1079      C1086   1.405       .  A
C1082      C1083   1.402       .  A
C1082      F1087   1.358       .  S
C1083      C1084   1.415       .  A
C1083      F1089   1.358       .  S
C1084      C1085   1.411       .  A
C1085      C1086   1.402       .  A
C1085      F1088   1.358       .  S
C1086      F1090   1.358       .  S
C1093      C1094   1.406       .  A
C1093      C1098   1.404       .  A
C1093      F1111   1.358       .  S
C1094      C1099   1.486       .  S
C1094      C1095   1.407       .  A
C1095      C1096   1.399       .  A
C1095      F1100   1.358       .  S
C1096      C1097   1.404       .  A
C1096      F1112   1.358       .  S
C1097      C1098   1.408       .  A
C1098      F1101   1.358       .  S
C1099      C1102   1.408       .  A
C1099      C1106   1.406       .  A
C1102      C1103   1.399       .  A
C1102      F1107   1.358       .  S
C1103      C1104   1.402       .  A
C1103      F1109   1.358       .  S
C1104      C1105   1.407       .  A
C1105      C1106   1.404       .  A
C1105      F1108   1.358       .  S
C1106      F1110   1.358       .  S
C1113      C1114   1.406       .  A
C1113      C1118   1.393       .  A
C1113      F1131   1.358       .  S
C1114      C1119   1.479       .  S
C1114      C1115   1.406       .  A
C1115      C1116   1.402       .  A
C1115      F1120   1.358       .  S
C1116      C1117   1.407       .  A
C1116      F1132   1.358       .  S
C1117      C1118   1.403       .  A
C1118      F1121   1.358       .  S
C1119      C1122   1.405       .  A
C1119      C1126   1.407       .  A
C1122      C1123   1.395       .  A
C1122      F1127   1.358       .  S
C1123      C1124   1.404       .  A
C1123      F1129   1.358       .  S
C1124      C1125   1.405       .  A
C1125      C1126   1.400       .  A
C1125      F1128   1.358       .  S
C1126      F1130   1.358       .  S
C1133      C1134   1.409       .  A
C1133      C1138   1.409       .  A
C1133      F1151   1.357       .  S
C1134      C1139   1.491       .  S
C1134      C1135   1.403       .  A
C1135      C1136   1.394       .  A
C1135      F1140   1.358       .  S
C1136      C1137   1.414       .  A
C1136      F1152   1.358       .  S
C1137      C1138   1.412       .  A
C1138      F1141   1.357       .  S
C1139      C1142   1.406       .  A
C1139      C1146   1.411       .  A
C1142      C1143   1.401       .  A
C1142      F1147   1.358       .  S
C1143      C1144   1.409       .  A
C1143      F1149   1.358       .  S
C1144      C1145   1.404       .  A
C1145      C1146   1.403       .  A
C1145      F1148   1.358       .  S
C1146      F1150   1.358       .  S
C1153      C1154   1.404       .  A
C1153      C1158   1.399       .  A
C1153      F1171   1.358       .  S
C1154      C1159   1.489       .  S
C1154      C1155   1.408       .  A
C1155      C1156   1.403       .  A
C1155      F1160   1.358       .  S
C1156      C1157   1.408       .  A
C1156      F1172   1.357       .  S
C1157      C1158   1.414       .  A
C1158      F1161   1.358       .  S
C1159      C1162   1.405       .  A
C1159      C1166   1.408       .  A
C1162      C1163   1.399       .  A
C1162      F1167   1.358       .  S
C1163      C1164   1.409       .  A
C1163      F1169   1.358       .  S
C1164      C1165   1.409       .  A
C1165      C1166   1.404       .  A
C1165      F1168   1.358       .  S
C1166      F1170   1.358       .  S
C1173      C1174   1.407       .  A
C1173      C1178   1.406       .  A
C1173      F1191   1.357       .  S
C1174      C1179   1.481       .  S
C1174      C1175   1.403       .  A
C1175      C1176   1.393       .  A
C1175      F1180   1.359       .  S
C1176      C1177   1.407       .  A
C1176      F1192   1.358       .  S
C1177      C1178   1.409       .  A
C1178      F1181   1.358       .  S
C1179      C1182   1.405       .  A
C1179      C1186   1.404       .  A
C1182      C1183   1.398       .  A
C1182      F1187   1.358       .  S
C1183      C1184   1.409       .  A
C1183      F1189   1.358       .  S
C1184      C1185   1.410       .  A
C1185      C1186   1.401       .  A
C1185      F1188   1.358       .  S
C1186      F1190   1.358       .  S
C1193      C1194   1.406       .  A
C1193      C1198   1.403       .  A
C1193      F1211   1.357       .  S
C1194      C1199   1.483       .  S
C1194      C1195   1.404       .  A
C1195      C1196   1.392       .  A
C1195      F1200   1.359       .  S
C1196      C1197   1.411       .  A
C1196      F1212   1.359       .  S
C1197      C1198   1.411       .  A
C1198      F1201   1.357       .  S
C1199      C1202   1.405       .  A
C1199      C1206   1.409       .  A
C1202      C1203   1.396       .  A
C1202      F1207   1.358       .  S
C1203      C1204   1.406       .  A
C1203      F1209   1.358       .  S
C1204      C1205   1.404       .  A
C1205      C1206   1.400       .  A
C1205      F1208   1.358       .  S
C1206      F1210   1.358       .  S
C1213      C1214   1.402       .  A
C1213      C1218   1.400       .  A
C1213      F1231   1.358       .  S
C1214      C1219   1.481       .  S
C1214      C1215   1.407       .  A
C1215      C1216   1.403       .  A
C1215      F1220   1.358       .  S
C1216      C1217   1.404       .  A
C1216      F1232   1.358       .  S
C1217      C1218   1.407       .  A
C1218      F1221   1.358       .  S
C1219      C1222   1.403       .  A
C1219      C1226   1.407       .  A
C1222      C1223   1.400       .  A
C1222      F1227   1.358       .  S
C1223      C1224   1.407       .  A
C1223      F1229   1.358       .  S
C1224      C1225   1.403       .  A
C1225      C1226   1.402       .  A
C1225      F1228   1.358       .  S
C1226      F1230   1.358       .  S
C1233      C1234   1.406       .  A
C1233      C1238   1.403       .  A
C1233      F1251   1.357       .  S
C1234      C1239   1.477       .  S
C1234      C1235   1.403       .  A
C1235      C1236   1.393       .  A
C1235      F1240   1.358       .  S
C1236      C1237   1.406       .  A
C1236      F1252   1.359       .  S
C1237      C1238   1.407       .  A
C1238      F1241   1.358       .  S
C1239      C1242   1.405       .  A
C1239      C1246   1.404       .  A
C1242      C1243   1.401       .  A
C1242      F1247   1.357       .  S
C1243      C1244   1.406       .  A
C1243      F1249   1.358       .  S
C1244      C1245   1.406       .  A
C1245      C1246   1.396       .  A
C1245      F1248   1.358       .  S
C1246      F1250   1.358       .  S
C1253      C1254   1.405       .  A
C1253      C1258   1.396       .  A
C1253      F1271   1.358       .  S
C1254      C1259   1.479       .  S
C1254      C1255   1.405       .  A
C1255      C1256   1.403       .  A
C1255      F1260   1.357       .  S
C1256      C1257   1.405       .  A
C1256      F1272   1.358       .  S
C1257      C1258   1.403       .  A
C1258      F1261   1.358       .  S
C1259      C1262   1.401       .  A
C1259      C1266   1.405       .  A
C1262      C1263   1.398       .  A
C1262      F1267   1.358   1_556  S
C1263      C1264   1.413       .  A
C1263      F1269   1.358       .  S
C1264      C1265   1.411       .  A
C1265      C1266   1.401       .  A
C1265      F1268   1.358       .  S
C1266      F1270   1.358       .  S
C1273      C1274   1.406       .  A
C1273      C1278   1.400       .  A
C1273      F1291   1.358       .  S
C1274      C1279   1.474       .  S
C1274      C1275   1.405       .  A
C1275      C1276   1.393       .  A
C1275      F1280   1.358       .  S
C1276      C1277   1.402       .  A
C1276      F1292   1.358       .  S
C1277      C1278   1.405       .  A
C1278      F1281   1.358       .  S
C1279      C1282   1.406       .  A
C1279      C1286   1.404       .  A
C1282      C1283   1.401       .  A
C1282      F1287   1.357       .  S
C1283      C1284   1.405       .  A
C1283      F1289   1.357       .  S
C1284      C1285   1.404       .  A
C1285      C1286   1.392       .  A
C1285      F1288   1.358       .  S
C1286      F1290   1.359       .  S
C1293      C1294   1.401       .  A
C1293      C1298   1.394       .  A
C1293      F1311   1.358       .  S
C1294      C1299   1.476       .  S
C1294      C1295   1.405       .  A
C1295      C1296   1.402       .  A
C1295      F1300   1.358       .  S
C1296      C1297   1.408       .  A
C1296      F1312   1.358       .  S
C1297      C1298   1.410       .  A
C1298      F1301   1.358       .  S
C1299      C1302   1.401       .  A
C1299      C1306   1.403       .  A
C1302      C1303   1.397       .  A
C1302      F1307   1.358       .  S
C1303      C1304   1.412       .  A
C1303      F1309   1.358       .  S
C1304      C1305   1.413       .  A
C1305      C1306   1.399       .  A
C1305      F1308   1.358       .  S
C1306      F1310   1.358       .  S
C1313      C1314   1.405       .  A
C1313      C1318   1.401       .  A
C1313      F1331   1.358       .  S
C1314      C1319   1.489   1_545  S
C1314      C1315   1.408       .  A
C1315      C1316   1.403       .  A
C1315      F1320   1.358   1_545  S
C1316      C1317   1.407       .  A
C1316      F1332   1.358       .  S
C1317      C1318   1.413       .  A
C1318      F1321   1.358       .  S
C1319      C1322   1.407       .  A
C1319      C1326   1.409       .  A
C1322      C1323   1.398       .  A
C1322      F1327   1.358       .  S
C1323      C1324   1.405       .  A
C1323      F1329   1.359       .  S
C1324      C1325   1.406       .  A
C1325      C1326   1.406       .  A
C1325      F1328   1.358       .  S
C1326      F1330   1.357       .  S
C1333      C1334   1.408       .  A
C1333      C1338   1.409       .  A
C1333      F1351   1.358       .  S
C1334      C1339   1.495       .  S
C1334      C1335   1.408       .  A
C1335      C1336   1.401       .  A
C1335      F1340   1.358       .  S
C1336      C1337   1.405       .  A
C1336      F1352   1.358       .  S
C1337      C1338   1.410       .  A
C1338      F1341   1.358       .  S
C1339      C1342   1.408       .  A
C1339      C1346   1.408       .  A
C1342      C1343   1.401       .  A
C1342      F1347   1.358       .  S
C1343      C1344   1.405       .  A
C1343      F1349   1.358       .  S
C1344      C1345   1.409       .  A
C1345      C1346   1.409       .  A
C1345      F1348   1.358       .  S
C1346      F1350   1.357       .  S
C1353      C1354   1.401       .  A
C1353      C1358   1.399       .  A
C1353      F1371   1.358       .  S
C1354      C1359   1.474       .  S
C1354      C1355   1.403       .  A
C1355      C1356   1.397       .  A
C1355      F1360   1.358       .  S
C1356      C1357   1.411       .  A
C1356      F1372   1.358       .  S
C1357      C1358   1.413       .  A
C1358      F1361   1.358       .  S
C1359      C1362   1.400   1_556  A
C1359      C1366   1.403   1_556  A
C1362      C1363   1.391       .  A
C1362      F1367   1.359       .  S
C1363      C1364   1.411       .  A
C1363      F1369   1.358       .  S
C1364      C1365   1.413       .  A
C1365      C1366   1.405       .  A
C1365      F1368   1.358       .  S
C1366      F1370   1.357   1_554  S
C1373      C1374   1.403       .  A
C1373      C1378   1.405       .  A
C1373      F1391   1.358       .  S
C1374      C1379   1.488       .  S
C1374      C1375   1.405       .  A
C1375      C1376   1.401       .  A
C1375      F1380   1.357       .  S
C1376      C1377   1.411       .  A
C1376      F1392   1.358       .  S
C1377      C1378   1.416       .  A
C1378      F1381   1.358       .  S
C1379      C1382   1.407       .  A
C1379      C1386   1.406       .  A
C1382      C1383   1.402       .  A
C1382      F1387   1.358       .  S
C1383      C1384   1.406       .  A
C1383      F1389   1.358       .  S
C1384      C1385   1.406       .  A
C1385      C1386   1.404       .  A
C1385      F1388   1.358       .  S
C1386      F1390   1.357       .  S
C1393      C1394   1.405       .  A
C1393      C1398   1.400       .  A
C1393      F1411   1.358       .  S
C1394      C1399   1.474       .  S
C1394      C1395   1.403       .  A
C1395      C1396   1.397       .  A
C1395      F1400   1.358       .  S
C1396      C1397   1.404       .  A
C1396      F1412   1.358       .  S
C1397      C1398   1.403       .  A
C1398      F1401   1.358       .  S
C1399      C1402   1.400       .  A
C1399      C1406   1.401       .  A
C1402      C1403   1.403       .  A
C1402      F1407   1.357       .  S
C1403      C1404   1.415       .  A
C1403      F1409   1.356       .  S
C1404      C1405   1.412       .  A
C1405      C1406   1.394       .  A
C1405      F1408   1.358       .  S
C1406      F1410   1.359       .  S
C1413      C1414   1.406       .  A
C1413      C1418   1.403       .  A
C1413      F1431   1.357       .  S
C1414      C1419   1.484       .  S
C1414      C1415   1.406       .  A
C1415      C1416   1.400       .  A
C1415      F1420   1.358       .  S
C1416      C1417   1.405       .  A
C1416      F1432   1.358       .  S
C1417      C1418   1.406       .  A
C1418      F1421   1.358       .  S
C1419      C1422   1.405       .  A
C1419      C1426   1.402       .  A
C1422      C1423   1.402       .  A
C1422      F1427   1.358       .  S
C1423      C1424   1.412       .  A
C1423      F1429   1.358       .  S
C1424      C1425   1.414       .  A
C1425      C1426   1.402       .  A
C1425      F1428   1.358       .  S
C1426      F1430   1.358       .  S
C1433      C1434   1.399       .  A
C1433      C1438   1.398       .  A
C1433      F1451   1.358       .  S
C1434      C1439   1.490       .  S
C1434      C1435   1.410       .  A
C1435      C1436   1.413       .  A
C1435      F1440   1.357       .  S
C1436      C1437   1.410       .  A
C1436      F1452   1.357       .  S
C1437      C1438   1.417       .  A
C1438      F1441   1.357       .  S
C1439      C1442   1.397       .  A
C1439      C1446   1.410       .  A
C1442      C1443   1.396       .  A
C1442      F1447   1.359       .  S
C1443      C1444   1.420       .  A
C1443      F1449   1.358       .  S
C1444      C1445   1.411       .  A
C1445      C1446   1.415       .  A
C1445      F1448   1.357       .  S
C1446      F1450   1.357       .  S
C1453      C1454   1.401       .  A
C1453      C1458   1.401       .  A
C1453      F1471   1.358       .  S
C1454      C1459   1.472       .  S
C1454      C1455   1.402       .  A
C1455      C1456   1.394       .  A
C1455      F1460   1.358       .  S
C1456      C1457   1.407       .  A
C1456      F1472   1.358       .  S
C1457      C1458   1.412       .  A
C1458      F1461   1.358       .  S
C1459      C1462   1.401       .  A
C1459      C1466   1.401       .  A
C1462      C1463   1.397       .  A
C1462      F1467   1.358       .  S
C1463      C1464   1.412       .  A
C1463      F1469   1.358       .  S
C1464      C1465   1.412       .  A
C1465      C1466   1.398       .  A
C1465      F1468   1.358       .  S
C1466      F1470   1.358       .  S
C1473      C1474   1.403       .  A
C1473      C1478   1.396       .  A
C1473      F1491   1.358       .  S
C1474      C1479   1.485       .  S
C1474      C1475   1.407       .  A
C1475      C1476   1.406       .  A
C1475      F1480   1.358       .  S
C1476      C1477   1.411       .  A
C1476      F1492   1.358       .  S
C1477      C1478   1.410       .  A
C1478      F1481   1.358       .  S
C1479      C1482   1.404       .  A
C1479      C1486   1.405       .  A
C1482      C1483   1.403       .  A
C1482      F1487   1.358       .  S
C1483      C1484   1.413       .  A
C1483      F1489   1.358       .  S
C1484      C1485   1.409       .  A
C1485      C1486   1.399       .  A
C1485      F1488   1.358       .  S
C1486      F1490   1.358       .  S
C1493      C1494   1.407       .  A
C1493      C1498   1.398       .  A
C1493      F1511   1.358       .  S
C1494      C1499   1.493       .  S
C1494      C1495   1.409       .  A
C1495      C1496   1.406       .  A
C1495      F1500   1.358       .  S
C1496      C1497   1.411       .  A
C1496      F1512   1.358       .  S
C1497      C1498   1.410       .  A
C1498      F1501   1.358   1_455  S
C1499      C1502   1.411       .  A
C1499      C1506   1.406       .  A
C1502      C1503   1.405   1_565  A
C1502      F1507   1.358       .  S
C1503      C1504   1.405       .  A
C1503      F1509   1.358       .  S
C1504      C1505   1.409       .  A
C1505      C1506   1.399   1_545  A
C1505      F1508   1.359       .  S
C1506      F1510   1.358       .  S
C1513      C1514   1.405       .  A
C1513      C1518   1.398       .  A
C1513      F1531   1.358       .  S
C1514      C1519   1.475   1_554  S
C1514      C1515   1.405       .  A
C1515      C1516   1.396       .  A
C1515      F1520   1.358       .  S
C1516      C1517   1.403       .  A
C1516      F1532   1.358       .  S
C1517      C1518   1.407       .  A
C1518      F1521   1.358       .  S
C1519      C1522   1.404       .  A
C1519      C1526   1.405       .  A
C1522      C1523   1.402       .  A
C1522      F1527   1.358   1_556  S
C1523      C1524   1.409       .  A
C1523      F1529   1.358       .  S
C1524      C1525   1.404       .  A
C1525      C1526   1.391       .  A
C1525      F1528   1.358       .  S
C1526      F1530   1.359       .  S
C1533      C1534   1.404       .  A
C1533      C1538   1.404       .  A
C1533      F1551   1.357       .  S
C1534      C1539   1.481       .  S
C1534      C1535   1.406       .  A
C1535      C1536   1.396       .  A
C1535      F1540   1.358       .  S
C1536      C1537   1.404       .  A
C1536      F1552   1.358       .  S
C1537      C1538   1.410       .  A
C1538      F1541   1.358       .  S
C1539      C1542   1.404       .  A
C1539      C1546   1.407       .  A
C1542      C1543   1.398       .  A
C1542      F1547   1.358       .  S
C1543      C1544   1.405       .  A
C1543      F1549   1.358       .  S
C1544      C1545   1.405       .  A
C1545      C1546   1.402       .  A
C1545      F1548   1.358       .  S
C1546      F1550   1.358       .  S
C1553      C1554   1.410       .  A
C1553      C1558   1.404       .  A
C1553      F1571   1.358       .  S
C1554      C1559   1.483       .  S
C1554      C1555   1.402       .  A
C1555      C1556   1.397       .  A
C1555      F1560   1.358       .  S
C1556      C1557   1.410       .  A
C1556      F1572   1.359       .  S
C1557      C1558   1.403       .  A
C1558      F1561   1.357       .  S
C1559      C1562   1.409       .  A
C1559      C1566   1.403       .  A
C1562      C1563   1.402       .  A
C1562      F1567   1.358       .  S
C1563      C1564   1.403       .  A
C1563      F1569   1.358   1_455  S
C1564      C1565   1.407       .  A
C1565      C1566   1.398       .  A
C1565      F1568   1.358       .  S
C1566      F1570   1.358       .  S
C1573      C1574   1.409   1_455  A
C1573      C1578   1.404       .  A
C1573      F1591   1.358   1_554  S
C1574      C1579   1.501       .  S
C1574      C1575   1.412   1_655  A
C1575      C1576   1.406       .  A
C1575      F1580   1.357   1_455  S
C1576      C1577   1.407       .  A
C1576      F1592   1.358       .  S
C1577      C1578   1.410       .  A
C1578      F1581   1.358       .  S
C1579      C1582   1.412   1_554  A
C1579      C1586   1.410       .  A
C1582      C1583   1.405       .  A
C1582      F1587   1.358   1_655  S
C1583      C1584   1.406       .  A
C1583      F1589   1.358       .  S
C1584      C1585   1.407       .  A
C1585      C1586   1.404   1_556  A
C1585      F1588   1.358   1_556  S
C1586      F1590   1.358       .  S
C1593      C1594   1.405       .  A
C1593      C1598   1.408       .  A
C1593      F1611   1.357       .  S
C1594      C1599   1.481       .  S
C1594      C1595   1.400       .  A
C1595      C1596   1.394       .  A
C1595      F1600   1.358       .  S
C1596      C1597   1.413       .  A
C1596      F1612   1.358       .  S
C1597      C1598   1.414       .  A
C1598      F1601   1.358       .  S
C1599      C1602   1.404       .  A
C1599      C1606   1.403       .  A
C1602      C1603   1.400       .  A
C1602      F1607   1.358       .  S
C1603      C1604   1.411       .  A
C1603      F1609   1.358       .  S
C1604      C1605   1.411       .  A
C1605      C1606   1.402       .  A
C1605      F1608   1.358       .  S
C1606      F1610   1.358       .  S
C1613      C1614   1.405       .  A
C1613      C1618   1.396       .  A
C1613      F1631   1.358       .  S
C1614      C1619   1.490       .  S
C1614      C1615   1.411       .  A
C1615      C1616   1.405       .  A
C1615      F1620   1.358       .  S
C1616      C1617   1.405       .  A
C1616      F1632   1.357       .  S
C1617      C1618   1.409       .  A
C1618      F1621   1.358       .  S
C1619      C1622   1.409       .  A
C1619      C1626   1.408       .  A
C1622      C1623   1.404       .  A
C1622      F1627   1.358       .  S
C1623      C1624   1.409       .  A
C1623      F1629   1.358       .  S
C1624      C1625   1.407       .  A
C1625      C1626   1.396       .  A
C1625      F1628   1.358       .  S
C1626      F1630   1.358       .  S
C1633      C1634   1.404       .  A
C1633      C1638   1.397       .  A
C1633      F1651   1.358       .  S
C1634      C1639   1.490       .  S
C1634      C1635   1.408       .  A
C1635      C1636   1.406       .  A
C1635      F1640   1.358       .  S
C1636      C1637   1.411       .  A
C1636      F1652   1.358       .  S
C1637      C1638   1.413       .  A
C1638      F1641   1.358       .  S
C1639      C1642   1.406       .  A
C1639      C1646   1.406       .  A
C1642      C1643   1.403       .  A
C1642      F1647   1.358       .  S
C1643      C1644   1.413       .  A
C1643      F1649   1.358       .  S
C1644      C1645   1.410       .  A
C1645      C1646   1.400       .  A
C1645      F1648   1.358       .  S
C1646      F1650   1.358       .  S
C1653      C1654   1.401       .  A
C1653      C1658   1.402   1_545  A
C1653      F1671   1.357   1_545  S
C1654      C1659   1.473       .  S
C1654      C1655   1.400       .  A
C1655      C1656   1.394       .  A
C1655      F1660   1.359       .  S
C1656      C1657   1.413   1_545  A
C1656      F1672   1.358       .  S
C1657      C1658   1.413       .  A
C1658      F1661   1.357       .  S
C1659      C1662   1.401       .  A
C1659      C1666   1.401       .  A
C1662      C1663   1.397       .  A
C1662      F1667   1.358   1_545  S
C1663      C1664   1.412       .  A
C1663      F1669   1.358       .  S
C1664      C1665   1.413       .  A
C1665      C1666   1.400       .  A
C1665      F1668   1.358       .  S
C1666      F1670   1.358       .  S
C1673      C1674   1.402   1_545  A
C1673      C1678   1.400       .  A
C1673      F1691   1.358       .  S
C1674      C1679   1.489       .  S
C1674      C1675   1.407       .  A
C1675      C1676   1.406   1_565  A
C1675      F1680   1.358       .  S
C1676      C1677   1.413       .  A
C1676      F1692   1.357   1_545  S
C1677      C1678   1.415       .  A
C1678      F1681   1.358       .  S
C1679      C1682   1.403       .  A
C1679      C1686   1.407       .  A
C1682      C1683   1.401       .  A
C1682      F1687   1.358       .  S
C1683      C1684   1.413       .  A
C1683      F1689   1.358       .  S
C1684      C1685   1.409       .  A
C1685      C1686   1.405       .  A
C1685      F1688   1.357       .  S
C1686      F1690   1.358       .  S
C1693      C1694   1.404       .  A
C1693      C1698   1.397       .  A
C1693      F1711   1.358       .  S
C1694      C1699   1.481       .  S
C1694      C1695   1.408       .  A
C1695      C1696   1.400       .  A
C1695      F1700   1.358       .  S
C1696      C1697   1.404       .  A
C1696      F1712   1.358       .  S
C1697      C1698   1.407       .  A
C1698      F1701   1.358       .  S
C1699      C1702   1.405       .  A
C1699      C1706   1.403       .  A
C1702      C1703   1.405       .  A
C1702      F1707   1.358       .  S
C1703      C1704   1.413       .  A
C1703      F1709   1.357       .  S
C1704      C1705   1.412       .  A
C1705      C1706   1.392       .  A
C1705      F1708   1.358       .  S
C1706      F1710   1.359       .  S
C1713      C1714   1.402       .  A
C1713      C1718   1.400       .  A
C1713      F1731   1.358       .  S
C1714      C1719   1.490       .  S
C1714      C1715   1.411       .  A
C1715      C1716   1.408       .  A
C1715      F1720   1.358       .  S
C1716      C1717   1.405       .  A
C1716      F1732   1.357       .  S
C1717      C1718   1.412       .  A
C1718      F1721   1.359       .  S
C1719      C1722   1.403       .  A
C1719      C1726   1.411       .  A
C1722      C1723   1.401       .  A
C1722      F1727   1.358       .  S
C1723      C1724   1.409       .  A
C1723      F1729   1.358       .  S
C1724      C1725   1.404       .  A
C1725      C1726   1.406       .  A
C1725      F1728   1.358   1_545  S
C1726      F1730   1.358       .  S
C1733      C1734   1.401       .  A
C1733      C1738   1.401       .  A
C1733      F1751   1.357       .  S
C1734      C1739   1.469       .  S
C1734      C1735   1.402       .  A
C1735      C1736   1.390       .  A
C1735      F1740   1.359       .  S
C1736      C1737   1.408       .  A
C1736      F1752   1.358       .  S
C1737      C1738   1.411       .  A
C1738      F1741   1.358       .  S
C1739      C1742   1.404       .  A
C1739      C1746   1.403       .  A
C1742      C1743   1.397       .  A
C1742      F1747   1.358       .  S
C1743      C1744   1.404       .  A
C1743      F1749   1.358       .  S
C1744      C1745   1.404       .  A
C1745      C1746   1.395       .  A
C1745      F1748   1.358       .  S
C1746      F1750   1.358       .  S
C1753      C1754   1.404       .  A
C1753      C1758   1.394       .  A
C1753      F1771   1.359       .  S
C1754      C1759   1.487       .  S
C1754      C1755   1.408       .  A
C1755      C1756   1.406       .  A
C1755      F1760   1.358       .  S
C1756      C1757   1.411       .  A
C1756      F1772   1.357       .  S
C1757      C1758   1.413       .  A
C1758      F1761   1.358       .  S
C1759      C1762   1.410       .  A
C1759      C1766   1.404       .  A
C1762      C1763   1.403       .  A
C1762      F1767   1.358       .  S
C1763      C1764   1.406       .  A
C1763      F1769   1.358       .  S
C1764      C1765   1.409       .  A
C1765      C1766   1.397       .  A
C1765      F1768   1.358       .  S
C1766      F1770   1.358       .  S
C1773      C1774   1.404       .  A
C1773      C1778   1.395       .  A
C1773      F1791   1.358       .  S
C1774      C1779   1.487       .  S
C1774      C1775   1.406       .  A
C1775      C1776   1.406       .  A
C1775      F1780   1.357       .  S
C1776      C1777   1.413       .  A
C1776      F1792   1.358       .  S
C1777      C1778   1.412       .  A
C1778      F1781   1.358       .  S
C1779      C1782   1.409       .  A
C1779      C1786   1.406       .  A
C1782      C1783   1.400       .  A
C1782      F1787   1.358       .  S
C1783      C1784   1.403       .  A
C1783      F1789   1.358       .  S
C1784      C1785   1.405       .  A
C1785      C1786   1.401       .  A
C1785      F1788   1.358       .  S
C1786      F1790   1.358       .  S
C1793      C1794   1.401       .  A
C1793      C1798   1.404       .  A
C1793      F1811   1.357       .  S
C1794      C1799   1.471       .  S
C1794      C1795   1.400       .  A
C1795      C1796   1.390       .  A
C1795      F1800   1.359       .  S
C1796      C1797   1.411       .  A
C1796      F1812   1.358       .  S
C1797      C1798   1.414       .  A
C1798      F1801   1.358       .  S
C1799      C1802   1.402       .  A
C1799      C1806   1.400       .  A
C1802      C1803   1.396       .  A
C1802      F1807   1.358       .  S
C1803      C1804   1.410       .  A
C1803      F1809   1.357       .  S
C1804      C1805   1.413       .  A
C1805      C1806   1.398       .  A
C1805      F1808   1.358       .  S
C1806      F1810   1.358       .  S
C1813      C1814   1.403       .  A
C1813      C1818   1.397       .  A
C1813      F1831   1.358       .  S
C1814      C1819   1.471       .  S
C1814      C1815   1.406       .  A
C1815      C1816   1.392       .  A
C1815      F1820   1.358       .  S
C1816      C1817   1.404       .  A
C1816      F1832   1.358       .  S
C1817      C1818   1.407       .  A
C1818      F1821   1.358       .  S
C1819      C1822   1.404       .  A
C1819      C1826   1.405       .  A
C1822      C1823   1.398       .  A
C1822      F1827   1.358       .  S
C1823      C1824   1.406       .  A
C1823      F1829   1.358       .  S
C1824      C1825   1.402       .  A
C1825      C1826   1.390       .  A
C1825      F1828   1.358       .  S
C1826      F1830   1.358       .  S
C1833      C1834   1.408       .  A
C1833      C1838   1.402       .  A
C1833      F1851   1.358       .  S
C1834      C1839   1.484   1_655  S
C1834      C1835   1.404       .  A
C1835      C1836   1.399       .  A
C1835      F1840   1.358   1_655  S
C1836      C1837   1.408       .  A
C1836      F1852   1.358       .  S
C1837      C1838   1.405       .  A
C1838      F1841   1.358       .  S
C1839      C1842   1.403       .  A
C1839      C1846   1.405       .  A
C1842      C1843   1.395       .  A
C1842      F1847   1.359       .  S
C1843      C1844   1.413       .  A
C1843      F1849   1.358       .  S
C1844      C1845   1.413       .  A
C1845      C1846   1.406       .  A
C1845      F1848   1.357       .  S
C1846      F1850   1.357       .  S
C1853      C1854   1.402       .  A
C1853      C1858   1.393       .  A
C1853      F1871   1.359       .  S
C1854      C1859   1.477       .  S
C1854      C1855   1.403       .  A
C1855      C1856   1.403       .  A
C1855      F1860   1.357       .  S
C1856      C1857   1.413       .  A
C1856      F1872   1.358       .  S
C1857      C1858   1.411       .  A
C1858      F1861   1.358       .  S
C1859      C1862   1.406       .  A
C1859      C1866   1.402       .  A
C1862      C1863   1.400       .  A
C1862      F1867   1.358       .  S
C1863      C1864   1.406       .  A
C1863      F1869   1.358       .  S
C1864      C1865   1.408       .  A
C1865      C1866   1.397       .  A
C1865      F1868   1.358       .  S
C1866      F1870   1.358       .  S
C1873      C1874   1.401       .  A
C1873      C1878   1.397       .  A
C1873      F1891   1.358       .  S
C1874      C1879   1.480       .  S
C1874      C1875   1.409       .  A
C1875      C1876   1.402       .  A
C1875      F1880   1.358       .  S
C1876      C1877   1.402       .  A
C1876      F1892   1.358       .  S
C1877      C1878   1.409       .  A
C1878      F1881   1.359       .  S
C1879      C1882   1.401       .  A
C1879      C1886   1.409       .  A
C1882      C1883   1.396       .  A
C1882      F1887   1.358       .  S
C1883      C1884   1.408       .  A
C1883      F1889   1.359       .  S
C1884      C1885   1.403       .  A
C1885      C1886   1.403       .  A
C1885      F1888   1.358       .  S
C1886      F1890   1.358       .  S
C1893      C1894   1.401       .  A
C1893      C1898   1.391       .  A
C1893      F1911   1.358       .  S
C1894      C1899   1.465   1_554  S
C1894      C1895   1.403       .  A
C1895      C1896   1.399       .  A
C1895      F1900   1.357       .  S
C1896      C1897   1.405       .  A
C1896      F1912   1.358       .  S
C1897      C1898   1.405       .  A
C1898      F1901   1.359       .  S
C1899      C1902   1.402       .  A
C1899      C1906   1.399       .  A
C1902      C1903   1.391       .  A
C1902      F1907   1.359       .  S
C1903      C1904   1.408       .  A
C1903      F1909   1.359       .  S
C1904      C1905   1.412       .  A
C1905      C1906   1.399       .  A
C1905      F1908   1.358       .  S
C1906      F1910   1.357   1_556  S
C1913      C1914   1.402       .  A
C1913      C1918   1.395       .  A
C1913      F1931   1.358       .  S
C1914      C1919   1.479   1_554  S
C1914      C1915   1.405       .  A
C1915      C1916   1.403       .  A
C1915      F1920   1.357   1_554  S
C1916      C1917   1.410       .  A
C1916      F1932   1.357   1_565  S
C1917      C1918   1.412       .  A
C1918      F1921   1.359       .  S
C1919      C1922   1.405       .  A
C1919      C1926   1.403       .  A
C1922      C1923   1.400       .  A
C1922      F1927   1.358   1_556  S
C1923      C1924   1.409       .  A
C1923      F1929   1.358       .  S
C1924      C1925   1.410       .  A
C1925      C1926   1.398       .  A
C1925      F1928   1.358       .  S
C1926      F1930   1.358       .  S
C1933      C1934   1.406       .  A
C1933      C1938   1.402       .  A
C1933      F1951   1.357       .  S
C1934      C1939   1.486       .  S
C1934      C1935   1.407       .  A
C1935      C1936   1.403       .  A
C1935      F1940   1.358       .  S
C1936      C1937   1.406       .  A
C1936      F1952   1.358       .  S
C1937      C1938   1.404       .  A
C1938      F1941   1.358       .  S
C1939      C1942   1.405       .  A
C1939      C1946   1.403       .  A
C1942      C1943   1.400       .  A
C1942      F1947   1.358       .  S
C1943      C1944   1.409       .  A
C1943      F1949   1.357       .  S
C1944      C1945   1.416       .  A
C1945      C1946   1.406       .  A
C1945      F1948   1.358       .  S
C1946      F1950   1.358       .  S
C1953      C1954   1.408       .  A
C1953      C1958   1.400       .  A
C1953      F1971   1.358       .  S
C1954      C1959   1.484       .  S
C1954      C1955   1.405       .  A
C1955      C1956   1.400       .  A
C1955      F1960   1.358       .  S
C1956      C1957   1.405       .  A
C1956      F1972   1.358       .  S
C1957      C1958   1.403       .  A
C1958      F1961   1.358       .  S
C1959      C1962   1.402       .  A
C1959      C1966   1.406       .  A
C1962      C1963   1.400       .  A
C1962      F1967   1.358       .  S
C1963      C1964   1.414       .  A
C1963      F1969   1.358       .  S
C1964      C1965   1.410       .  A
C1965      C1966   1.401       .  A
C1965      F1968   1.358       .  S
C1966      F1970   1.358       .  S
C1973      C1974   1.407       .  A
C1973      C1978   1.395       .  A
C1973      F1991   1.358       .  S
C1974      C1979   1.479       .  S
C1974      C1975   1.404       .  A
C1975      C1976   1.399       .  A
C1975      F1980   1.358       .  S
C1976      C1977   1.410       .  A
C1976      F1992   1.358       .  S
C1977      C1978   1.406       .  A
C1978      F1981   1.358       .  S
C1979      C1982   1.403       .  A
C1979      C1986   1.406       .  A
C1982      C1983   1.396       .  A
C1982      F1987   1.358       .  S
C1983      C1984   1.413       .  A
C1983      F1989   1.358       .  S
C1984      C1985   1.409       .  A
C1985      C1986   1.398       .  A
C1985      F1988   1.358       .  S
C1986      F1990   1.358       .  S
C1993      C1994   1.404       .  A
C1993      C1998   1.395       .  A
C1993      F2011   1.358       .  S
C1994      C1999   1.477       .  S
C1994      C1995   1.406       .  A
C1995      C1996   1.400       .  A
C1995      F2000   1.358       .  S
C1996      C1997   1.405       .  A
C1996      F2012   1.358       .  S
C1997      C1998   1.407       .  A
C1998      F2001   1.359       .  S
C1999      C2002   1.406       .  A
C1999      C2006   1.406       .  A
C2002      C2003   1.394       .  A
C2002      F2007   1.358       .  S
C2003      C2004   1.402       .  A
C2003      F2009   1.358       .  S
C2004      C2005   1.405       .  A
C2005      C2006   1.401       .  A
C2005      F2008   1.358       .  S
C2006      F2010   1.358       .  S
C2013      C2014   1.403       .  A
C2013      C2018   1.395       .  A
C2013      F2031   1.358       .  S
C2014      C2019   1.477       .  S
C2014      C2015   1.404       .  A
C2015      C2016   1.404       .  A
C2015      F2020   1.357       .  S
C2016      C2017   1.408       .  A
C2016      F2032   1.358       .  S
C2017      C2018   1.405       .  A
C2018      F2021   1.358       .  S
C2019      C2022   1.400       .  A
C2019      C2026   1.404       .  A
C2022      C2023   1.398       .  A
C2022      F2027   1.358       .  S
C2023      C2024   1.413       .  A
C2023      F2029   1.358       .  S
C2024      C2025   1.411       .  A
C2025      C2026   1.401       .  A
C2025      F2028   1.358       .  S
C2026      F2030   1.358       .  S
C2033      C2034   1.400       .  A
C2033      C2038   1.397       .  A
C2033      F2051   1.358       .  S
C2034      C2039   1.477       .  S
C2034      C2035   1.404       .  A
C2035      C2036   1.401       .  A
C2035      F2040   1.358       .  S
C2036      C2037   1.411       .  A
C2036      F2052   1.358       .  S
C2037      C2038   1.415       .  A
C2038      F2041   1.358       .  S
C2039      C2042   1.400       .  A
C2039      C2046   1.405       .  A
C2042      C2043   1.394       .  A
C2042      F2047   1.358       .  S
C2043      C2044   1.412       .  A
C2043      F2049   1.358       .  S
C2044      C2045   1.410       .  A
C2045      C2046   1.404       .  A
C2045      F2048   1.358       .  S
C2046      F2050   1.358       .  S
C2053      C2054   1.402       .  A
C2053      C2058   1.401       .  A
C2053      F2071   1.358       .  S
C2054      C2059   1.483       .  S
C2054      C2055   1.405       .  A
C2055      C2056   1.401       .  A
C2055      F2060   1.358       .  S
C2056      C2057   1.411       .  A
C2056      F2072   1.358       .  S
C2057      C2058   1.415       .  A
C2058      F2061   1.358       .  S
C2059      C2062   1.406       .  A
C2059      C2066   1.405       .  A
C2062      C2063   1.399       .  A
C2062      F2067   1.358       .  S
C2063      C2064   1.404       .  A
C2063      F2069   1.358       .  S
C2064      C2065   1.406       .  A
C2065      C2066   1.403       .  A
C2065      F2068   1.358       .  S
C2066      F2070   1.357       .  S
C2073      C2074   1.408       .  A
C2073      C2078   1.400       .  A
C2073      F2091   1.358       .  S
C2074      C2079   1.496   1_655  S
C2074      C2075   1.409       .  A
C2075      C2076   1.407       .  A
C2075      F2080   1.357       .  S
C2076      C2077   1.408       .  A
C2076      F2092   1.358       .  S
C2077      C2078   1.408       .  A
C2078      F2081   1.358       .  S
C2079      C2082   1.408       .  A
C2079      C2086   1.410       .  A
C2082      C2083   1.405       .  A
C2082      F2087   1.357       .  S
C2083      C2084   1.407       .  A
C2083      F2089   1.358       .  S
C2084      C2085   1.405       .  A
C2085      C2086   1.403       .  A
C2085      F2088   1.358       .  S
C2086      F2090   1.358   1_455  S
C2093      C2094   1.406       .  A
C2093      C2098   1.399       .  A
C2093      F2111   1.358       .  S
C2094      C2099   1.484       .  S
C2094      C2095   1.405       .  A
C2095      C2096   1.401       .  A
C2095      F2100   1.358       .  S
C2096      C2097   1.411       .  A
C2096      F2112   1.358       .  S
C2097      C2098   1.409       .  A
C2098      F2101   1.358       .  S
C2099      C2102   1.405       .  A
C2099      C2106   1.406       .  A
C2102      C2103   1.396       .  A
C2102      F2107   1.358       .  S
C2103      C2104   1.409       .  A
C2103      F2109   1.358       .  S
C2104      C2105   1.409       .  A
C2105      C2106   1.405       .  A
C2105      F2108   1.358       .  S
C2106      F2110   1.357       .  S
C2113      C2114   1.405       .  A
C2113      C2118   1.394       .  A
C2113      F2131   1.358       .  S
C2114      C2119   1.474       .  S
C2114      C2115   1.405       .  A
C2115      C2116   1.399       .  A
C2115      F2120   1.358       .  S
C2116      C2117   1.406       .  A
C2116      F2132   1.358       .  S
C2117      C2118   1.404       .  A
C2118      F2121   1.358       .  S
C2119      C2122   1.405       .  A
C2119      C2126   1.405       .  A
C2122      C2123   1.392       .  A
C2122      F2127   1.358       .  S
C2123      C2124   1.404       .  A
C2123      F2129   1.359       .  S
C2124      C2125   1.407       .  A
C2125      C2126   1.400       .  A
C2125      F2128   1.358       .  S
C2126      F2130   1.358       .  S
C2133      C2134   1.405       .  A
C2133      C2138   1.406       .  A
C2133      F2151   1.357       .  S
C2134      C2139   1.485       .  S
C2134      C2135   1.403       .  A
C2135      C2136   1.396       .  A
C2135      F2140   1.359       .  S
C2136      C2137   1.413       .  A
C2136      F2152   1.358       .  S
C2137      C2138   1.414       .  A
C2138      F2141   1.358       .  S
C2139      C2142   1.403       .  A
C2139      C2146   1.409       .  A
C2142      C2143   1.398       .  A
C2142      F2147   1.358       .  S
C2143      C2144   1.408       .  A
C2143      F2149   1.358       .  S
C2144      C2145   1.405       .  A
C2145      C2146   1.404       .  A
C2145      F2148   1.358       .  S
C2146      F2150   1.358       .  S
C2153      C2154   1.404       .  A
C2153      C2158   1.408       .  A
C2153      F2171   1.357       .  S
C2154      C2159   1.484       .  S
C2154      C2155   1.402       .  A
C2155      C2156   1.396       .  A
C2155      F2160   1.359       .  S
C2156      C2157   1.412       .  A
C2156      F2172   1.358       .  S
C2157      C2158   1.414       .  A
C2158      F2161   1.357       .  S
C2159      C2162   1.403       .  A
C2159      C2166   1.408       .  A
C2162      C2163   1.400       .  A
C2162      F2167   1.358       .  S
C2163      C2164   1.409       .  A
C2163      F2169   1.358       .  S
C2164      C2165   1.406       .  A
C2165      C2166   1.404       .  A
C2165      F2168   1.358       .  S
C2166      F2170   1.358       .  S
C2173      C2174   1.402       .  A
C2173      C2178   1.401       .  A
C2173      F2191   1.357       .  S
C2174      C2179   1.472       .  S
C2174      C2175   1.403       .  A
C2175      C2176   1.393       .  A
C2175      F2180   1.359       .  S
C2176      C2177   1.406       .  A
C2176      F2192   1.358       .  S
C2177      C2178   1.409       .  A
C2178      F2181   1.358       .  S
C2179      C2182   1.405       .  A
C2179      C2186   1.402       .  A
C2182      C2183   1.400       .  A
C2182      F2187   1.357       .  S
C2183      C2184   1.405       .  A
C2183      F2189   1.358       .  S
C2184      C2185   1.406       .  A
C2185      C2186   1.395       .  A
C2185      F2188   1.359       .  S
C2186      F2190   1.358       .  S
C2193      C2194   1.404       .  A
C2193      C2198   1.400       .  A
C2193      F2211   1.358       .  S
C2194      C2199   1.480       .  S
C2194      C2195   1.402       .  A
C2195      C2196   1.399       .  A
C2195      F2200   1.358       .  S
C2196      C2197   1.414       .  A
C2196      F2212   1.358       .  S
C2197      C2198   1.411       .  A
C2198      F2201   1.357       .  S
C2199      C2202   1.405       .  A
C2199      C2206   1.405       .  A
C2202      C2203   1.396       .  A
C2202      F2207   1.358       .  S
C2203      C2204   1.405       .  A
C2203      F2209   1.358       .  S
C2204      C2205   1.410       .  A
C2205      C2206   1.403       .  A
C2205      F2208   1.358       .  S
C2206      F2210   1.358       .  S
C2213      C2214   1.402       .  A
C2213      C2218   1.398   1_655  A
C2213      F2231   1.358       .  S
C2214      C2219   1.479       .  S
C2214      C2215   1.406   1_655  A
C2215      C2216   1.403       .  A
C2215      F2220   1.357   1_455  S
C2216      C2217   1.405       .  A
C2216      F2232   1.358       .  S
C2217      C2218   1.409       .  A
C2218      F2221   1.359       .  S
C2219      C2222   1.402       .  A
C2219      C2226   1.403       .  A
C2222      C2223   1.405       .  A
C2222      F2227   1.357       .  S
C2223      C2224   1.413       .  A
C2223      F2229   1.357       .  S
C2224      C2225   1.410       .  A
C2225      C2226   1.397       .  A
C2225      F2228   1.358       .  S
C2226      F2230   1.358       .  S
C2233      C2234   1.403       .  A
C2233      C2238   1.401       .  A
C2233      F2251   1.358       .  S
C2234      C2239   1.478       .  S
C2234      C2235   1.402       .  A
C2235      C2236   1.397       .  A
C2235      F2240   1.358       .  S
C2236      C2237   1.412       .  A
C2236      F2252   1.358       .  S
C2237      C2238   1.412       .  A
C2238      F2241   1.358       .  S
C2239      C2242   1.404       .  A
C2239      C2246   1.405       .  A
C2242      C2243   1.398       .  A
C2242      F2247   1.358       .  S
C2243      C2244   1.407       .  A
C2243      F2249   1.358       .  S
C2244      C2245   1.407       .  A
C2245      C2246   1.399       .  A
C2245      F2248   1.358       .  S
C2246      F2250   1.358       .  S
C2253      C2254   1.410       .  A
C2253      C2258   1.404       .  A
C2253      F2271   1.358       .  S
C2254      C2259   1.488   1_565  S
C2254      C2255   1.404       .  A
C2255      C2256   1.399       .  A
C2255      F2260   1.358       .  S
C2256      C2257   1.410       .  A
C2256      F2272   1.358       .  S
C2257      C2258   1.405       .  A
C2258      F2261   1.358       .  S
C2259      C2262   1.403       .  A
C2259      C2266   1.408       .  A
C2262      C2263   1.394       .  A
C2262      F2267   1.359   1_545  S
C2263      C2264   1.414       .  A
C2263      F2269   1.358       .  S
C2264      C2265   1.412       .  A
C2265      C2266   1.409       .  A
C2265      F2268   1.357       .  S
C2266      F2270   1.357       .  S
C2273      C2274   1.406       .  A
C2273      C2278   1.402       .  A
C2273      F2291   1.358       .  S
C2274      C2279   1.498       .  S
C2274      C2275   1.414       .  A
C2275      C2276   1.406       .  A
C2275      F2280   1.357       .  S
C2276      C2277   1.403       .  A
C2276      F2292   1.357       .  S
C2277      C2278   1.409       .  A
C2278      F2281   1.359       .  S
C2279      C2282   1.405       .  A
C2279      C2286   1.414       .  A
C2282      C2283   1.400       .  A
C2282      F2287   1.358       .  S
C2283      C2284   1.411       .  A
C2283      F2289   1.359       .  S
C2284      C2285   1.405       .  A
C2285      C2286   1.409       .  A
C2285      F2288   1.357       .  S
C2286      F2290   1.357       .  S
C2293      C2294   1.405       .  A
C2293      C2298   1.394       .  A
C2293      F2311   1.358       .  S
C2294      C2299   1.477       .  S
C2294      C2295   1.405       .  A
C2295      C2296   1.399       .  A
C2295      F2300   1.358       .  S
C2296      C2297   1.408       .  A
C2296      F2312   1.358       .  S
C2297      C2298   1.407       .  A
C2298      F2301   1.359       .  S
C2299      C2302   1.404       .  A
C2299      C2306   1.403       .  A
C2302      C2303   1.397       .  A
C2302      F2307   1.358       .  S
C2303      C2304   1.409       .  A
C2303      F2309   1.358       .  S
C2304      C2305   1.411       .  A
C2305      C2306   1.396       .  A
C2305      F2308   1.359       .  S
C2306      F2310   1.358       .  S
C2313      C2314   1.403       .  A
C2313      C2318   1.396       .  A
C2313      F2331   1.358       .  S
C2314      C2319   1.472       .  S
C2314      C2315   1.404       .  A
C2315      C2316   1.399       .  A
C2315      F2320   1.358       .  S
C2316      C2317   1.406       .  A
C2316      F2332   1.358       .  S
C2317      C2318   1.407       .  A
C2318      F2321   1.359       .  S
C2319      C2322   1.404       .  A
C2319      C2326   1.403       .  A
C2322      C2323   1.392       .  A
C2322      F2327   1.359       .  S
C2323      C2324   1.405       .  A
C2323      F2329   1.358       .  S
C2324      C2325   1.409   1_455  A
C2325      C2326   1.402   1_655  A
C2325      F2328   1.358       .  S
C2326      F2330   1.357   1_455  S
C2333      C2334   1.403       .  A
C2333      C2338   1.398       .  A
C2333      F2351   1.358       .  S
C2334      C2339   1.483       .  S
C2334      C2335   1.407       .  A
C2335      C2336   1.406       .  A
C2335      F2340   1.357       .  S
C2336      C2337   1.406       .  A
C2336      F2352   1.357       .  S
C2337      C2338   1.409       .  A
C2338      F2341   1.359       .  S
C2339      C2342   1.401       .  A
C2339      C2346   1.405       .  A
C2342      C2343   1.400       .  A
C2342      F2347   1.358       .  S
C2343      C2344   1.414       .  A
C2343      F2349   1.358       .  S
C2344      C2345   1.412       .  A
C2345      C2346   1.404       .  A
C2345      F2348   1.357       .  S
C2346      F2350   1.358       .  S
C2353      C2354   1.403       .  A
C2353      C2358   1.396       .  A
C2353      F2371   1.358   1_554  S
C2354      C2359   1.485       .  S
C2354      C2355   1.406       .  A
C2355      C2356   1.402       .  A
C2355      F2360   1.358   1_565  S
C2356      C2357   1.411       .  A
C2356      F2372   1.358       .  S
C2357      C2358   1.413       .  A
C2358      F2361   1.358       .  S
C2359      C2362   1.404   1_565  A
C2359      C2366   1.406   1_564  A
C2362      C2363   1.400       .  A
C2362      F2367   1.358       .  S
C2363      C2364   1.413   1_554  A
C2363      F2369   1.358       .  S
C2364      C2365   1.408       .  A
C2365      C2366   1.400       .  A
C2365      F2368   1.357       .  S
C2366      F2370   1.358   1_545  S
C2373      C2374   1.406       .  A
C2373      C2378   1.402       .  A
C2373      F2391   1.358       .  S
C2374      C2379   1.484       .  S
C2374      C2375   1.401       .  A
C2375      C2376   1.401       .  A
C2375      F2380   1.358   1_556  S
C2376      C2377   1.415       .  A
C2376      F2392   1.358       .  S
C2377      C2378   1.411       .  A
C2378      F2381   1.358       .  S
C2379      C2382   1.405       .  A
C2379      C2386   1.407       .  A
C2382      C2383   1.402       .  A
C2382      F2387   1.357       .  S
C2383      C2384   1.406       .  A
C2383      F2389   1.358       .  S
C2384      C2385   1.404       .  A
C2385      C2386   1.400       .  A
C2385      F2388   1.358       .  S
C2386      F2390   1.358       .  S
C2393      C2394   1.407       .  A
C2393      C2398   1.404       .  A
C2393      F2411   1.357       .  S
C2394      C2399   1.482       .  S
C2394      C2395   1.405       .  A
C2395      C2396   1.395       .  A
C2395      F2400   1.358       .  S
C2396      C2397   1.407       .  A
C2396      F2412   1.359       .  S
C2397      C2398   1.407       .  A
C2398      F2401   1.358       .  S
C2399      C2402   1.404       .  A
C2399      C2406   1.406       .  A
C2402      C2403   1.398       .  A
C2402      F2407   1.358       .  S
C2403      C2404   1.410       .  A
C2403      F2409   1.358       .  S
C2404      C2405   1.409       .  A
C2405      C2406   1.401       .  A
C2405      F2408   1.358       .  S
C2406      F2410   1.358       .  S
C2413      C2414   1.405       .  A
C2413      C2418   1.401       .  A
C2413      F2431   1.358       .  S
C2414      C2419   1.473       .  S
C2414      C2415   1.404       .  A
C2415      C2416   1.392       .  A
C2415      F2420   1.359       .  S
C2416      C2417   1.405       .  A
C2416      F2432   1.359       .  S
C2417      C2418   1.407       .  A
C2418      F2421   1.358       .  S
C2419      C2422   1.406       .  A
C2419      C2426   1.404       .  A
C2422      C2423   1.401       .  A
C2422      F2427   1.357       .  S
C2423      C2424   1.405       .  A
C2423      F2429   1.357       .  S
C2424      C2425   1.404       .  A
C2425      C2426   1.391       .  A
C2425      F2428   1.359       .  S
C2426      F2430   1.358       .  S
C2433      C2434   1.407   1_455  A
C2433      C2438   1.407       .  A
C2433      F2451   1.357       .  S
C2434      C2439   1.484       .  S
C2434      C2435   1.403   1_655  A
C2435      C2436   1.398       .  A
C2435      F2440   1.358   1_455  S
C2436      C2437   1.408       .  A
C2436      F2452   1.359       .  S
C2437      C2438   1.407       .  A
C2438      F2441   1.358       .  S
C2439      C2442   1.404       .  A
C2439      C2446   1.402       .  A
C2442      C2443   1.403       .  A
C2442      F2447   1.358       .  S
C2443      C2444   1.412       .  A
C2443      F2449   1.358       .  S
C2444      C2445   1.415       .  A
C2445      C2446   1.403       .  A
C2445      F2448   1.358       .  S
C2446      F2450   1.358       .  S
C2453      C2454   1.406       .  A
C2453      C2458   1.403       .  A
C2453      F2471   1.358       .  S
C2454      C2459   1.482       .  S
C2454      C2455   1.402       .  A
C2455      C2456   1.398       .  A
C2455      F2460   1.358       .  S
C2456      C2457   1.413       .  A
C2456      F2472   1.358       .  S
C2457      C2458   1.409       .  A
C2458      F2461   1.358       .  S
C2459      C2462   1.407       .  A
C2459      C2466   1.404       .  A
C2462      C2463   1.406       .  A
C2462      F2467   1.357       .  S
C2463      C2464   1.406       .  A
C2463      F2469   1.358       .  S
C2464      C2465   1.406       .  A
C2465      C2466   1.394       .  A
C2465      F2468   1.359       .  S
C2466      F2470   1.359       .  S
C2473      C2474   1.407       .  A
C2473      C2478   1.400       .  A
C2473      F2491   1.358   1_545  S
C2474      C2479   1.494       .  S
C2474      C2475   1.409       .  A
C2475      C2476   1.408       .  A
C2475      F2480   1.357       .  S
C2476      C2477   1.409       .  A
C2476      F2492   1.358       .  S
C2477      C2478   1.407       .  A
C2478      F2481   1.358       .  S
C2479      C2482   1.407       .  A
C2479      C2486   1.410       .  A
C2482      C2483   1.406       .  A
C2482      F2487   1.358       .  S
C2483      C2484   1.408       .  A
C2483      F2489   1.358       .  S
C2484      C2485   1.404   1_545  A
C2485      C2486   1.403   1_565  A
C2485      F2488   1.358       .  S
C2486      F2490   1.358       .  S
C2493      C2494   1.404       .  A
C2493      C2498   1.396       .  A
C2493      F2511   1.358       .  S
C2494      C2499   1.478   1_554  S
C2494      C2495   1.406       .  A
C2495      C2496   1.402       .  A
C2495      F2500   1.358       .  S
C2496      C2497   1.406       .  A
C2496      F2512   1.358       .  S
C2497      C2498   1.405       .  A
C2498      F2501   1.358       .  S
C2499      C2502   1.404       .  A
C2499      C2506   1.405       .  A
C2502      C2503   1.394       .  A
C2502      F2507   1.358       .  S
C2503      C2504   1.406   1_545  A
C2503      F2509   1.358       .  S
C2504      C2505   1.408       .  A
C2505      C2506   1.403   1_565  A
C2505      F2508   1.358       .  S
C2506      F2510   1.357   1_546  S
C2513      C2514   1.403       .  A
C2513      C2518   1.397       .  A
C2513      F2531   1.358       .  S
C2514      C2519   1.476       .  S
C2514      C2515   1.403       .  A
C2515      C2516   1.399       .  A
C2515      F2520   1.358       .  S
C2516      C2517   1.409       .  A
C2516      F2532   1.358       .  S
C2517      C2518   1.409       .  A
C2518      F2521   1.358       .  S
C2519      C2522   1.403   1_556  A
C2519      C2526   1.402   1_556  A
C2522      C2523   1.401       .  A
C2522      F2527   1.357   1_554  S
C2523      C2524   1.410   1_455  A
C2523      F2529   1.358   1_455  S
C2524      C2525   1.411   1_655  A
C2525      C2526   1.395       .  A
C2525      F2528   1.358   1_455  S
C2526      F2530   1.358       .  S
C2533      C2534   1.407       .  A
C2533      C2538   1.401       .  A
C2533      F2551   1.358       .  S
C2534      C2539   1.483       .  S
C2534      C2535   1.403       .  A
C2535      C2536   1.401       .  A
C2535      F2540   1.358       .  S
C2536      C2537   1.408       .  A
C2536      F2552   1.358       .  S
C2537      C2538   1.405       .  A
C2538      F2541   1.358       .  S
C2539      C2542   1.402       .  A
C2539      C2546   1.405       .  A
C2542      C2543   1.395       .  A
C2542      F2547   1.359       .  S
C2543      C2544   1.412       .  A
C2543      F2549   1.358       .  S
C2544      C2545   1.413       .  A
C2545      C2546   1.407       .  A
C2545      F2548   1.357       .  S
C2546      F2550   1.357       .  S
C2553      C2554   1.412       .  A
C2553      C2558   1.404       .  A
C2553      F2571   1.358       .  S
C2554      C2559   1.495       .  S
C2554      C2555   1.407       .  A
C2555      C2556   1.401       .  A
C2555      F2560   1.358       .  S
C2556      C2557   1.408       .  A
C2556      F2572   1.358       .  S
C2557      C2558   1.404       .  A
C2558      F2561   1.357       .  S
C2559      C2562   1.407       .  A
C2559      C2566   1.412       .  A
C2562      C2563   1.400       .  A
C2562      F2567   1.358       .  S
C2563      C2564   1.407       .  A
C2563      F2569   1.358       .  S
C2564      C2565   1.405       .  A
C2565      C2566   1.405       .  A
C2565      F2568   1.358       .  S
C2566      F2570   1.358       .  S
C2573      C2574   1.402       .  A
C2573      C2578   1.395       .  A
C2573      F2591   1.359       .  S
C2574      C2579   1.483       .  S
C2574      C2575   1.405       .  A
C2575      C2576   1.406       .  A
C2575      F2580   1.357       .  S
C2576      C2577   1.413       .  A
C2576      F2592   1.357       .  S
C2577      C2578   1.413       .  A
C2578      F2581   1.358       .  S
C2579      C2582   1.408       .  A
C2579      C2586   1.403       .  A
C2582      C2583   1.403       .  A
C2582      F2587   1.358       .  S
C2583      C2584   1.406       .  A
C2583      F2589   1.358       .  S
C2584      C2585   1.409       .  A
C2585      C2586   1.399       .  A
C2585      F2588   1.358       .  S
C2586      F2590   1.358       .  S
C2593      C2594   1.402       .  A
C2593      C2598   1.402       .  A
C2593      F2611   1.357       .  S
C2594      C2599   1.470       .  S
C2594      C2595   1.401       .  A
C2595      C2596   1.391       .  A
C2595      F2600   1.359       .  S
C2596      C2597   1.409       .  A
C2596      F2612   1.358       .  S
C2597      C2598   1.412       .  A
C2598      F2601   1.358       .  S
C2599      C2602   1.404       .  A
C2599      C2606   1.402       .  A
C2602      C2603   1.400       .  A
C2602      F2607   1.358       .  S
C2603      C2604   1.405       .  A
C2603      F2609   1.358       .  S
C2604      C2605   1.405       .  A
C2605      C2606   1.394       .  A
C2605      F2608   1.359       .  S
C2606      F2610   1.358       .  S
C2613      C2614   1.398       .  A
C2613      C2618   1.392       .  A
C2613      F2631   1.359       .  S
C2614      C2619   1.472       .  S
C2614      C2615   1.402       .  A
C2615      C2616   1.404       .  A
C2615      F2620   1.357       .  S
C2616      C2617   1.412       .  A
C2616      F2632   1.358       .  S
C2617      C2618   1.414       .  A
C2618      F2621   1.358       .  S
C2619      C2622   1.401       .  A
C2619      C2626   1.401       .  A
C2622      C2623   1.399       .  A
C2622      F2627   1.358       .  S
C2623      C2624   1.412       .  A
C2623      F2629   1.358       .  S
C2624      C2625   1.412       .  A
C2625      C2626   1.396       .  A
C2625      F2628   1.358       .  S
C2626      F2630   1.358       .  S
C2633      C2634   1.402       .  A
C2633      C2638   1.397       .  A
C2633      F2651   1.358       .  S
C2634      C2639   1.474       .  S
C2634      C2635   1.405       .  A
C2635      C2636   1.399       .  A
C2635      F2640   1.358       .  S
C2636      C2637   1.404       .  A
C2636      F2652   1.358       .  S
C2637      C2638   1.407       .  A
C2638      F2641   1.358       .  S
C2639      C2642   1.400       .  A
C2639      C2646   1.403       .  A
C2642      C2643   1.401       .  A
C2642      F2647   1.357       .  S
C2643      C2644   1.414       .  A
C2643      F2649   1.358       .  S
C2644      C2645   1.409       .  A
C2645      C2646   1.396       .  A
C2645      F2648   1.358       .  S
C2646      F2650   1.358       .  S
C2653      C2654   1.403       .  A
C2653      C2658   1.399       .  A
C2653      F2671   1.358       .  S
C2654      C2659   1.481       .  S
C2654      C2655   1.407       .  A
C2655      C2656   1.401       .  A
C2655      F2660   1.358       .  S
C2656      C2657   1.406       .  A
C2656      F2672   1.358       .  S
C2657      C2658   1.407       .  A
C2658      F2661   1.358       .  S
C2659      C2662   1.404       .  A
C2659      C2666   1.402       .  A
C2662      C2663   1.405       .  A
C2662      F2667   1.357       .  S
C2663      C2664   1.413       .  A
C2663      F2669   1.357       .  S
C2664      C2665   1.413       .  A
C2665      C2666   1.396       .  A
C2665      F2668   1.358       .  S
C2666      F2670   1.359       .  S
C2673      C2674   1.410   1_455  A
C2673      C2678   1.405       .  A
C2673      F2691   1.358   1_455  S
C2674      C2679   1.483       .  S
C2674      C2675   1.401   1_655  A
C2675      C2676   1.397       .  A
C2675      F2680   1.358       .  S
C2676      C2677   1.409       .  A
C2676      F2692   1.359       .  S
C2677      C2678   1.404       .  A
C2678      F2681   1.358       .  S
C2679      C2682   1.409       .  A
C2679      C2686   1.403       .  A
C2682      C2683   1.402       .  A
C2682      F2687   1.358       .  S
C2683      C2684   1.402       .  A
C2683      F2689   1.358       .  S
C2684      C2685   1.408       .  A
C2685      C2686   1.399       .  A
C2685      F2688   1.359       .  S
C2686      F2690   1.358       .  S
C2693      C2694   1.404       .  A
C2693      C2698   1.401       .  A
C2693      F2711   1.358       .  S
C2694      C2699   1.476       .  S
C2694      C2695   1.403       .  A
C2695      C2696   1.391       .  A
C2695      F2700   1.359       .  S
C2696      C2697   1.408       .  A
C2696      F2712   1.359       .  S
C2697      C2698   1.410       .  A
C2698      F2701   1.358       .  S
C2699      C2702   1.403       .  A
C2699      C2706   1.405       .  A
C2702      C2703   1.395       .  A
C2702      F2707   1.358       .  S
C2703      C2704   1.410       .  A
C2703      F2709   1.359       .  S
C2704      C2705   1.407       .  A
C2705      C2706   1.398       .  A
C2705      F2708   1.358       .  S
C2706      F2710   1.358       .  S
C2713      C2714   1.405       .  A
C2713      C2718   1.394       .  A
C2713      F2731   1.358       .  S
C2714      C2719   1.478       .  S
C2714      C2715   1.406       .  A
C2715      C2716   1.402       .  A
C2715      F2720   1.358       .  S
C2716      C2717   1.404       .  A
C2716      F2732   1.358       .  S
C2717      C2718   1.404       .  A
C2718      F2721   1.358       .  S
C2719      C2722   1.402       .  A
C2719      C2726   1.404       .  A
C2722      C2723   1.388       .  A
C2722      F2727   1.359       .  S
C2723      C2724   1.411       .  A
C2723      F2729   1.358       .  S
C2724      C2725   1.414       .  A
C2725      C2726   1.406       .  A
C2725      F2728   1.358       .  S
C2726      F2730   1.357       .  S
C2733      C2734   1.408       .  A
C2733      C2738   1.403       .  A
C2733      F2751   1.358       .  S
C2734      C2739   1.488   1_655  S
C2734      C2735   1.408       .  A
C2735      C2736   1.401       .  A
C2735      F2740   1.358       .  S
C2736      C2737   1.404       .  A
C2736      F2752   1.358       .  S
C2737      C2738   1.405       .  A
C2738      F2741   1.358       .  S
C2739      C2742   1.405       .  A
C2739      C2746   1.405       .  A
C2742      C2743   1.400       .  A
C2742      F2747   1.358       .  S
C2743      C2744   1.412       .  A
C2743      F2749   1.358       .  S
C2744      C2745   1.413       .  A
C2745      C2746   1.403       .  A
C2745      F2748   1.358       .  S
C2746      F2750   1.358       .  S
C2753      C2754   1.405       .  A
C2753      C2758   1.399       .  A
C2753      F2771   1.358       .  S
C2754      C2759   1.491       .  S
C2754      C2755   1.407       .  A
C2755      C2756   1.404       .  A
C2755      F2760   1.358       .  S
C2756      C2757   1.412       .  A
C2756      F2772   1.358       .  S
C2757      C2758   1.413       .  A
C2758      F2761   1.358       .  S
C2759      C2762   1.406       .  A
C2759      C2766   1.407       .  A
C2762      C2763   1.402       .  A
C2762      F2767   1.358       .  S
C2763      C2764   1.411       .  A
C2763      F2769   1.358       .  S
C2764      C2765   1.409       .  A
C2765      C2766   1.401       .  A
C2765      F2768   1.358       .  S
C2766      F2770   1.358       .  S
C2773      C2774   1.405       .  A
C2773      C2778   1.402       .  A
C2773      F2791   1.358       .  S
C2774      C2779   1.483       .  S
C2774      C2775   1.403       .  A
C2775      C2776   1.400       .  A
C2775      F2780   1.358       .  S
C2776      C2777   1.412       .  A
C2776      F2792   1.358       .  S
C2777      C2778   1.410       .  A
C2778      F2781   1.358       .  S
C2779      C2782   1.407   1_565  A
C2779      C2786   1.404       .  A
C2782      C2783   1.406       .  A
C2782      F2787   1.357   1_545  S
C2783      C2784   1.408       .  A
C2783      F2789   1.358       .  S
C2784      C2785   1.406       .  A
C2785      C2786   1.395   1_545  A
C2785      F2788   1.358       .  S
C2786      F2790   1.358       .  S
C2793      C2794   1.406       .  A
C2793      C2798   1.404   1_655  A
C2793      F2811   1.358       .  S
C2794      C2799   1.481       .  S
C2794      C2795   1.404       .  A
C2795      C2796   1.395       .  A
C2795      F2800   1.358       .  S
C2796      C2797   1.409       .  A
C2796      F2812   1.358       .  S
C2797      C2798   1.409   1_655  A
C2798      F2801   1.358       .  S
C2799      C2802   1.404       .  A
C2799      C2806   1.405       .  A
C2802      C2803   1.399       .  A
C2802      F2807   1.358       .  S
C2803      C2804   1.412       .  A
C2803      F2809   1.359       .  S
C2804      C2805   1.409       .  A
C2805      C2806   1.399       .  A
C2805      F2808   1.358       .  S
C2806      F2810   1.358       .  S
C2813      C2814   1.406       .  A
C2813      C2818   1.396       .  A
C2813      F2831   1.358       .  S
C2814      C2819   1.479       .  S
C2814      C2815   1.406       .  A
C2815      C2816   1.400       .  A
C2815      F2820   1.358       .  S
C2816      C2817   1.406       .  A
C2816      F2832   1.358       .  S
C2817      C2818   1.403       .  A
C2818      F2821   1.358       .  S
C2819      C2822   1.406       .  A
C2819      C2826   1.406       .  A
C2822      C2823   1.394       .  A
C2822      F2827   1.358       .  S
C2823      C2824   1.404       .  A
C2823      F2829   1.358       .  S
C2824      C2825   1.408       .  A
C2825      C2826   1.402       .  A
C2825      F2828   1.358       .  S
C2826      F2830   1.358       .  S
C2833      C2834   1.405       .  A
C2833      C2838   1.399       .  A
C2833      F2851   1.358       .  S
C2834      C2839   1.482       .  S
C2834      C2835   1.403       .  A
C2835      C2836   1.399       .  A
C2835      F2840   1.358       .  S
C2836      C2837   1.412       .  A
C2836      F2852   1.358       .  S
C2837      C2838   1.409       .  A
C2838      F2841   1.358       .  S
C2839      C2842   1.406       .  A
C2839      C2846   1.407       .  A
C2842      C2843   1.402       .  A
C2842      F2847   1.358       .  S
C2843      C2844   1.405       .  A
C2843      F2849   1.358       .  S
C2844      C2845   1.404       .  A
C2845      C2846   1.397       .  A
C2845      F2848   1.358       .  S
C2846      F2850   1.358       .  S
C2853      C2854   1.404       .  A
C2853      C2858   1.402       .  A
C2853      F2871   1.357       .  S
C2854      C2859   1.475       .  S
C2854      C2855   1.404       .  A
C2855      C2856   1.396       .  A
C2855      F2860   1.358       .  S
C2856      C2857   1.403       .  A
C2856      F2872   1.358       .  S
C2857      C2858   1.406       .  A
C2858      F2861   1.358       .  S
C2859      C2862   1.404       .  A
C2859      C2866   1.399       .  A
C2862      C2863   1.400       .  A
C2862      F2867   1.358       .  S
C2863      C2864   1.411       .  A
C2863      F2869   1.358       .  S
C2864      C2865   1.414       .  A
C2865      C2866   1.398       .  A
C2865      F2868   1.358       .  S
C2866      F2870   1.358       .  S
C2873      C2874   1.408       .  A
C2873      C2878   1.407       .  A
C2873      F2891   1.358       .  S
C2874      C2879   1.491       .  S
C2874      C2875   1.408       .  A
C2875      C2876   1.397       .  A
C2875      F2880   1.358       .  S
C2876      C2877   1.404       .  A
C2876      F2892   1.358       .  S
C2877      C2878   1.409       .  A
C2878      F2881   1.358       .  S
C2879      C2882   1.409       .  A
C2879      C2886   1.407       .  A
C2882      C2883   1.400       .  A
C2882      F2887   1.358       .  S
C2883      C2884   1.403       .  A
C2883      F2889   1.358       .  S
C2884      C2885   1.407       .  A
C2885      C2886   1.404       .  A
C2885      F2888   1.358       .  S
C2886      F2890   1.358       .  S
C2893      C2894   1.402       .  A
C2893      C2898   1.399       .  A
C2893      F2911   1.358       .  S
C2894      C2899   1.485       .  S
C2894      C2895   1.406       .  A
C2895      C2896   1.406       .  A
C2895      F2900   1.358       .  S
C2896      C2897   1.413       .  A
C2896      F2912   1.358       .  S
C2897      C2898   1.414       .  A
C2898      F2901   1.358       .  S
C2899      C2902   1.403       .  A
C2899      C2906   1.406       .  A
C2902      C2903   1.401       .  A
C2902      F2907   1.358       .  S
C2903      C2904   1.414       .  A
C2903      F2909   1.358       .  S
C2904      C2905   1.410       .  A
C2905      C2906   1.403       .  A
C2905      F2908   1.358       .  S
C2906      F2910   1.358       .  S
C2913      C2914   1.404       .  A
C2913      C2918   1.400       .  A
C2913      F2931   1.358       .  S
C2914      C2919   1.478       .  S
C2914      C2915   1.405       .  A
C2915      C2916   1.394       .  A
C2915      F2920   1.358       .  S
C2916      C2917   1.408       .  A
C2916      F2932   1.359       .  S
C2917      C2918   1.408       .  A
C2918      F2921   1.358       .  S
C2919      C2922   1.405       .  A
C2919      C2926   1.404       .  A
C2922      C2923   1.397       .  A
C2922      F2927   1.358       .  S
C2923      C2924   1.408       .  A
C2923      F2929   1.358       .  S
C2924      C2925   1.409       .  A
C2925      C2926   1.397       .  A
C2925      F2928   1.358       .  S
C2926      F2930   1.358       .  S
C2933      C2934   1.406       .  A
C2933      C2938   1.393       .  A
C2933      F2951   1.358       .  S
C2934      C2939   1.477       .  S
C2934      C2935   1.406       .  A
C2935      C2936   1.402       .  A
C2935      F2940   1.358       .  S
C2936      C2937   1.406       .  A
C2936      F2952   1.358       .  S
C2937      C2938   1.403       .  A
C2938      F2941   1.358       .  S
C2939      C2942   1.405       .  A
C2939      C2946   1.406       .  A
C2942      C2943   1.396       .  A
C2942      F2947   1.358       .  S
C2943      C2944   1.405       .  A
C2943      F2949   1.358       .  S
C2944      C2945   1.406       .  A
C2945      C2946   1.399       .  A
C2945      F2948   1.358       .  S
C2946      F2950   1.358       .  S
