geometry optimzed in LAMMPS
_audit_creation_date              2020-12-01 
_audit_creation_method            'lammps2cif' 
_symmetry_space_group_name_H-M    'P1' 
_symmetry_Int_Tables_number       1 
_symmetry_cell_setting            triclinic 
loop_ 
_symmetry_equiv_pos_as_xyz 
  x,y,z 
_cell_length_a                    33.99475813 
_cell_length_b                    33.998916287311054 
_cell_length_c                    97.98200217274652 
_cell_angle_alpha                 89.99696004488048 
_cell_angle_beta                  90.00392200250823 
_cell_angle_gamma                 119.98682457541562 
loop_ 
_atom_site_label 
_atom_site_type_symbol 
_atom_site_fract_x 
_atom_site_fract_y 
_atom_site_fract_z 
_atom_site_charge 
O1          O  0.41159453  0.17173711  0.61758125    -0.77600
C2          C  0.34894033  0.05731001  0.58893851     0.83400
O3          O  0.30051487  0.01390083  0.62830469    -0.78700
O4          O  0.41069935  0.48912950  0.60725882    -0.80200
O5          O  0.01754758  0.12048222  0.62655136    -0.80000
O6          O  0.47232353  0.18930460  0.63035878    -0.78600
Zn7        Zn  0.37753513  0.10486590  0.61610592     1.55700
O8          O  0.50038356  0.08781657  0.60576717    -0.80000
Cd9        Cd  0.46211371  0.12407956  0.63200710     1.59700
Cd10       Cd  0.36620293  0.02457369  0.63272601     1.59600
O11         O  0.44993201  0.11074310  0.65235194    -0.80000
O12         O  0.41032460  0.07699809  0.62138046    -1.90500
Cd13       Cd  0.42789253  0.05592613  0.60497672     1.59900
O14         O  0.38378404  0.04519685  0.65330376    -0.80000
O15         O  0.38315690  0.05078974  0.58876143    -0.78600
C16         C  0.29733372  0.04965427  0.62818508     0.83900
C17         C  0.44550019  0.19999257  0.62461892     0.83600
O18         O  0.34300282  0.07856079  0.59866338    -0.77600
C19         C  0.02783551  0.10597143  0.61595025     0.84400
O20         O  0.33225498  0.08771890  0.63021339    -0.77700
C21         C  0.41718421  0.07970104  0.65908303     0.84500
C22         C  0.38998994  0.45990350  0.61655049     0.84800
O23         O  0.37201743  0.46815397  0.62688918    -0.80100
O24         O  0.49223414  0.08526321  0.73451576    -0.77600
C25         C  0.38969358  0.46398181  0.70848042     0.83400
O26         O  0.03494327  0.14989609  0.70482528    -0.78700
O27         O  0.38543941  0.05343553  0.68077524    -0.80200
O28         O  0.33522543  0.07661651  0.72736103    -0.80000
O29         O  0.45264118  0.11381113  0.74432938    -0.78600
Zn30       Zn  0.45768470  0.05899871  0.71707778     1.55700
O31         O  0.31798502  0.04371305  0.70660880    -0.80000
Cd32       Cd  0.40773702  0.10845866  0.72813162     1.59700
Cd33       Cd  0.46936217  0.13943174  0.70039162     1.59600
O34         O  0.42497844  0.17523242  0.72576427    -0.80000
O35         O  0.42515568  0.08711302  0.71175512    -1.90500
Cd36       Cd  0.37334343  0.04009485  0.70112307     1.59900
O37         O  0.46372040  0.19602288  0.70614488    -0.80000
O38         O  0.36303062  0.47482857  0.70271533    -0.78600
C39         C  0.03803704  0.11409378  0.70498733     0.83900
C40         C  0.48662574  0.10692207  0.74418410     0.83600
O41         O  0.42348487  0.99208747  0.71558705    -0.77600
C42         C  0.30773111  0.05832046  0.71719286     0.84400
O43         O  0.00306417  0.07601837  0.70301192    -0.77700
C44         C  0.44571928  0.20437308  0.71645505     0.84500
C45         C  0.41827356  0.08436660  0.67404374     0.84800
O46         O  0.45177428  0.11877488  0.67982288    -0.80100
O47         O  0.32444868  0.23544267  0.61754125    -0.77600
C48         C  0.43842985  0.28667704  0.58878067     0.83400
O49         O  0.48264925  0.28140756  0.62783082    -0.78700
O50         O  0.00785073  0.41705587  0.60721003    -0.80200
O51         O  0.37653396  0.39229264  0.62669436    -0.80000
O52         O  0.30776078  0.27839516  0.63072376    -0.78600
Zn53       Zn  0.39131768  0.26791652  0.61596832     1.55700
O54         O  0.40881322  0.40774925  0.60584627    -0.80000
Cd55       Cd  0.37320536  0.33339225  0.63215820     1.59700
Cd56       Cd  0.47256898  0.33657489  0.63238732     1.59600
O57         O  0.38791363  0.33512694  0.65243932    -0.80000
O58         O  0.41980656  0.32857226  0.62129001    -1.90500
Cd59       Cd  0.44092464  0.36739039  0.60493299     1.59900
O60         O  0.45326737  0.33403079  0.65300431    -0.80000
O61         O  0.44569074  0.32767675  0.58868071    -0.78600
C62         C  0.44685861  0.24251785  0.62775806     0.83900
C63         C  0.29657097  0.24106575  0.62478338     0.83600
O64         O  0.41682052  0.25945616  0.59845326    -0.77600
C65         C  0.39077890  0.41701142  0.61607159     0.84400
O66         O  0.40877653  0.23933185  0.62985035    -0.77700
C67         C  0.41933397  0.33345849  0.65897948     0.84500
C68         C  0.03722255  0.42523690  0.61643602     0.84800
O69         O  0.02909247  0.39864405  0.62665600    -0.80100
O70         O  0.41898091  0.40479298  0.73451103    -0.77600
C71         C  0.03891667  0.42305113  0.70805033     0.83400
O72         O  0.35262249  0.38259220  0.70518784    -0.78700
O73         O  0.44731955  0.32890289  0.68048177    -0.80200
O74         O  0.42689673  0.25658299  0.72710215    -0.80000
O75         O  0.39005023  0.33654094  0.74426744    -0.78600
Zn76       Zn  0.44418650  0.39626919  0.71693798     1.55700
O77         O  0.45897591  0.27182504  0.70622698    -0.80000
Cd78       Cd  0.39461851  0.29677136  0.72799971     1.59700
Cd79       Cd  0.36276721  0.32748262  0.70057174     1.59600
O80         O  0.32765873  0.24702103  0.72575935    -0.80000
O81         O  0.41564519  0.33556300  0.71163415    -1.90500
Cd82       Cd  0.46220125  0.33068777  0.70074735     1.59900
O83         O  0.30629623  0.26537322  0.70632582    -0.80000
O84         O  0.02770258  0.38565945  0.70214665    -0.78600
C85         C  0.38837322  0.42151658  0.70526382     0.83900
C86         C  0.39742533  0.37758001  0.74419169     0.83600
O87         O  0.01103188  0.42876617  0.71525856    -0.77600
C88         C  0.44487787  0.24724203  0.71688102     0.84400
O89         O  0.42645861  0.42478656  0.70310605    -0.77700
C90         C  0.29822388  0.23880375  0.71654948     0.84500
C91         C  0.41589012  0.33059186  0.67395226     0.84800
O92         O  0.38198173  0.33004768  0.67993737    -0.80100
O93         O  0.26201015  0.08503983  0.61793452    -0.77600
C94         C  0.21020074  0.14682509  0.58886803     0.83400
O95         O  0.21505354  0.19658678  0.62786234    -0.78700
O96         O  0.07992798  0.08570038  0.60718994    -0.80200
O97         O  0.10454838  0.47943223  0.62675247    -0.80000
O98         O  0.21854602  0.02431780  0.63066029    -0.78600
Zn99       Zn  0.22920248  0.11908663  0.61616886     1.55700
O100        O  0.08963272  0.49621545  0.60582377    -0.80000
Cd101      Cd  0.16368896  0.03498385  0.63219967     1.59700
Cd102      Cd  0.16027329  0.13112301  0.63246810     1.59600
O103        O  0.16325537  0.04858098  0.65249851    -0.80000
O104        O  0.16849281  0.08648171  0.62137963    -1.90500
Cd105      Cd  0.12974265  0.06860410  0.60500470     1.59900
O106        O  0.16420111  0.11495962  0.65308187    -0.80000
O107        O  0.16937514  0.11281940  0.58875316    -0.78600
C108        C  0.25404612  0.19990850  0.62794177     0.83900
C109        C  0.25619558  0.05108897  0.62498247     0.83600
O110        O  0.23744466  0.15287268  0.59858731    -0.77600
C111        C  0.08010919  0.46892970  0.61605660     0.84400
O112        O  0.25732036  0.16510878  0.63010292    -0.77700
C113        C  0.16553911  0.08195527  0.65903640     0.84500
C114        C  0.07151489  0.10670821  0.61641579     0.84800
O115        O  0.09790676  0.12503369  0.62669613    -0.80100
O116        O  0.09814219  0.01058475  0.73432554    -0.77600
C117        C  0.07920097  0.11265227  0.70813034     0.83400
O118        O  0.12049518  0.46741365  0.70506374    -0.78700
O119        O  0.17214047  0.11539703  0.68052647    -0.80200
O120        O  0.24577191  0.16787886  0.72719984    -0.80000
O121        O  0.16594446  0.05119861  0.74427443    -0.78600
Zn122      Zn  0.10631716  0.04466827  0.71680124     1.55700
O123        O  0.23086269  0.18454540  0.70625612    -0.80000
Cd124      Cd  0.20563508  0.09547543  0.72804172     1.59700
Cd125      Cd  0.17536579  0.03294788  0.70054744     1.59600
O126        O  0.25552190  0.07848392  0.72591970    -0.80000
O127        O  0.16702306  0.07749670  0.71163714    -1.90500
Cd128      Cd  0.17172010  0.12894776  0.70082888     1.59900
O129        O  0.23770145  0.03914669  0.70641260    -0.76400
O130        O  0.11678590  0.13945078  0.70242397    -0.78600
C131        C  0.08153006  0.46415304  0.70491358     0.83900
C132        C  0.12529552  0.01689024  0.74409657     0.83600
O133        O  0.07346772  0.07869448  0.71516048    -0.77600
C134        C  0.25531616  0.19510760  0.71695056     0.84400
O135        O  0.07838779  0.49902449  0.70275290    -0.77700
C136        C  0.26402302  0.05750716  0.71670683     0.84500
C137        C  0.17008798  0.08213789  0.67398215     0.84800
O138        O  0.17161196  0.04922540  0.67993168    -0.80100
O139        O  0.09257728  0.26492129  0.88213503    -0.77600
C140        C  0.15535650  0.21346479  0.91078135     0.83400
O141        O  0.20441352  0.21877442  0.87157557    -0.78700
O142        O  0.09392139  0.08334714  0.89239745    -0.80200
O143        O  0.48732453  0.10813887  0.87298131    -0.80000
O144        O  0.03259295  0.22202602  0.86906376    -0.78600
Zn145      Zn  0.12693142  0.23237012  0.88360018     1.55700
O146        O  0.00425540  0.09272171  0.89381615    -0.80000
Cd147      Cd  0.04290696  0.16701263  0.86752754     1.59700
Cd148      Cd  0.13897786  0.16361040  0.86709316     1.59600
O149        O  0.05553112  0.16548057  0.84722654    -0.80000
O150        O  0.09447491  0.17174134  0.87829198    -1.90500
Cd151      Cd  0.07675262  0.13303516  0.89467597     1.59900
O152        O  0.12181478  0.16626757  0.84648867    -0.80000
O153        O  0.12132314  0.17263738  0.91092573    -0.78600
C154        C  0.20752903  0.25768123  0.87166780     0.83900
C155        C  0.05894359  0.25935224  0.87496687     0.83600
O156        O  0.16119760  0.24065118  0.90107101    -0.77600
C157        C  0.47689059  0.08344697  0.88360801     0.84400
O158        O  0.17260424  0.26083482  0.86960853    -0.77700
C159        C  0.08843365  0.16708725  0.84060126     0.84500
C160        C  0.11496859  0.07502866  0.88316081     0.84800
O161        O  0.13330338  0.10147643  0.87289719    -0.80100
O162        O  0.01480964  0.09659791  0.76512332    -0.77600
C163        C  0.11706894  0.07805852  0.79131241     0.83400
O164        O  0.47156188  0.11855672  0.79465509    -0.78700
O165        O  0.12053310  0.17196660  0.81900236    -0.80200
O166        O  0.17145342  0.24483315  0.77240423    -0.80000
O167        O  0.05418175  0.16478645  0.75533890    -0.78600
Zn168      Zn  0.04909056  0.10496834  0.78260129     1.55700
O169        O  0.18851014  0.22935053  0.79321468    -0.80000
Cd170      Cd  0.09895887  0.20438130  0.77156480     1.59700
Cd171      Cd  0.03695763  0.17367347  0.79916328     1.59600
O172        O  0.08176888  0.25402711  0.77391211    -0.80000
O173        O  0.08143086  0.16560404  0.78793313    -1.90500
Cd174      Cd  0.13305777  0.17042756  0.79868951     1.59900
O175        O  0.04255826  0.23583256  0.79344140    -0.80000
O176        O  0.14343636  0.11544982  0.79718071    -0.78600
C177        C  0.46843510  0.07964774  0.79452159     0.83900
C178        C  0.02035022  0.12383959  0.75545824     0.83600
O179        O  0.08344903  0.07242545  0.78412513    -0.77600
C180        C  0.19885199  0.25410423  0.78260378     0.84400
O181        O  0.50334170  0.07644577  0.79656439    -0.77700
C182        C  0.06080248  0.26231610  0.78318159     0.84500
C183        C  0.08757292  0.17020835  0.82563409     0.84800
O184        O  0.05412441  0.17090833  0.81975291    -0.80100
O185        O  0.24291484  0.32833595  0.88194031    -0.77600
C186        C  0.29459531  0.44256678  0.91077614     0.83400
O187        O  0.28954478  0.48648109  0.87159613    -0.78700
O188        O  0.42473893  0.01129915  0.89242033    -0.80200
O189        O  0.40021224  0.38005339  0.87306354    -0.80000
O190        O  0.28623388  0.31110197  0.86912600    -0.78600
Zn191      Zn  0.27566336  0.39519999  0.88357988     1.55700
O192        O  0.41552437  0.41245701  0.89389033    -0.80000
Cd193      Cd  0.34116828  0.37648942  0.86757895     1.59700
Cd194      Cd  0.34452083  0.47593672  0.86706133     1.59600
O195        O  0.34205195  0.39015445  0.84725179    -0.80000
O196        O  0.33634827  0.42335479  0.87830056    -1.90500
Cd197      Cd  0.37508585  0.44448779  0.89468115     1.59900
O198        O  0.34098639  0.45549588  0.84646070    -0.80000
O199        O  0.33549260  0.44954776  0.91088952    -0.78600
C200        C  0.25061216  0.45073749  0.87165777     0.83900
C201        C  0.24866187  0.30022760  0.87485542     0.83600
O202        O  0.26731348  0.42102026  0.90109950    -0.77600
C203        C  0.42487067  0.39436481  0.88370208     0.84400
O204        O  0.24743321  0.41267204  0.86958007    -0.77700
C205        C  0.33989919  0.42111552  0.84060375     0.84500
C206        C  0.43317747  0.04057544  0.88315051     0.84800
O207        O  0.40683751  0.03237478  0.87284410    -0.80100
O208        O  0.40816921  0.41589909  0.76520002    -0.77600
C209        C  0.42725963  0.03714067  0.79134434     0.83400
O210        O  0.38602641  0.35084497  0.79473578    -0.78700
O211        O  0.33379341  0.44753587  0.81899111    -0.80200
O212        O  0.26021646  0.42516052  0.77236156    -0.80000
O213        O  0.34012259  0.38796612  0.75536063    -0.78600
Zn214      Zn  0.40002036  0.44205876  0.78268699     1.55700
O215        O  0.27562579  0.45758694  0.79318374    -0.80000
Cd216      Cd  0.30062894  0.39311328  0.77157129     1.59700
Cd217      Cd  0.33110739  0.36156463  0.79920708     1.59600
O218        O  0.25094885  0.32631677  0.77381638    -0.80000
O219        O  0.33936489  0.41414693  0.78795368    -1.90500
Cd220      Cd  0.33467292  0.46111189  0.79865513     1.59900
O221        O  0.26882286  0.30519741  0.79339042    -0.80000
O222        O  0.38971220  0.02639536  0.79706894    -0.78600
C223        C  0.42496347  0.38657372  0.79470183     0.83900
C224        C  0.38087468  0.39455512  0.75550468     0.83600
O225        O  0.43292069  0.00894613  0.78427338    -0.77600
C226        C  0.25089772  0.44323393  0.78255895     0.84400
O227        O  0.42811043  0.42463854  0.79674864    -0.77700
C228        C  0.24251292  0.29701620  0.78307740     0.84500
C229        C  0.33580269  0.41651088  0.82564749     0.84800
O230        O  0.33458913  0.38205829  0.81979858    -0.80100
O231        O  0.18010262  0.41566775  0.88201655    -0.77600
C232        C  0.06631821  0.35350232  0.91093049     0.83400
O233        O  0.02180839  0.30371743  0.87184159    -0.78700
O234        O  0.49718393  0.41464723  0.89249694    -0.80200
O235        O  0.12809995  0.02075158  0.87292225    -0.80000
O236        O  0.19696312  0.47567743  0.86898667    -0.78600
Zn237      Zn  0.11322166  0.38140594  0.88367091     1.55700
O238        O  0.09632776  0.00410204  0.89383941    -0.80000
Cd239      Cd  0.13150932  0.46514400  0.86748530     1.59700
Cd240      Cd  0.03210677  0.36906138  0.86727064     1.59600
O241        O  0.11714032  0.45180318  0.84719347    -0.80000
O242        O  0.08492380  0.41375804  0.87835936    -1.90500
Cd243      Cd  0.06405750  0.43168920  0.89472774     1.59900
O244        O  0.05171019  0.38545880  0.84663856    -0.80000
O245        O  0.05938669  0.38745071  0.91102118    -0.78600
C246        C  0.05756092  0.30052742  0.87185630     0.83900
C247        C  0.20805577  0.44932151  0.87483722     0.83600
O248        O  0.08762085  0.34754258  0.90122889    -0.77600
C249        C  0.11413740  0.03132518  0.88359301     0.84400
O250        O  0.09564767  0.33539078  0.86977049    -0.77700
C251        C  0.08585433  0.41858594  0.84066112     0.84500
C252        C  0.46774883  0.39350894  0.88328487     0.84800
O253        O  0.47577094  0.37499170  0.87304967    -0.80100
O254        O  0.08775268  0.48966983  0.76519811    -0.77600
C255        C  0.46756457  0.38801474  0.79156570     0.83400
O256        O  0.15407742  0.03360239  0.79449018    -0.78700
O257        O  0.05843094  0.38553897  0.81916453    -0.80200
O258        O  0.07937133  0.33324981  0.77253595    -0.80000
O259        O  0.11566099  0.44958031  0.75532860    -0.78600
Zn260      Zn  0.06246545  0.45600505  0.78278007     1.55700
O261        O  0.04759971  0.31652560  0.79345244    -0.80000
Cd262      Cd  0.11151326  0.40563507  0.77163400     1.59700
Cd263      Cd  0.14359089  0.46821395  0.79909158     1.59600
O264        O  0.17852056  0.42293029  0.77379265    -0.80000
O265        O  0.09070333  0.42353661  0.78801957    -1.90500
Cd266      Cd  0.04406303  0.37209904  0.79887459     1.59900
O267        O  0.19990387  0.46231225  0.79328863    -0.80000
O268        O  0.47852589  0.36144113  0.79734070    -0.78600
C269        C  0.11839036  0.03689745  0.79450164     0.83900
C270        C  0.10875865  0.48354580  0.75544502     0.83600
O271        O  0.99566013  0.42186393  0.78448354    -0.77600
C272        C  0.06159142  0.30600133  0.78277687     0.84400
O273        O  0.08030532  0.00212085  0.79666588    -0.77700
C274        C  0.20796291  0.44398344  0.78301216     0.84500
C275        C  0.08975409  0.41872992  0.82569711     0.84800
O276        O  0.12394767  0.45182089  0.81972225    -0.80100
O277        O  0.34016012  0.24210433  0.54855563    -0.77600
C278        C  0.22681770  0.18020018  0.57752712     0.83400
O279        O  0.18186078  0.13052532  0.53843514    -0.78700
O280        O  0.15741401  0.24114157  0.55922999    -0.80200
O281        O  0.28835675  0.34761817  0.53965895    -0.80000
O282        O  0.35735604  0.30261282  0.53572948    -0.78600
Zn283      Zn  0.27334692  0.20797935  0.55022258     1.55700
O284        O  0.25646912  0.33076866  0.56055693    -0.80000
Cd285      Cd  0.29188221  0.29207712  0.53418852     1.59700
Cd286      Cd  0.19238300  0.19598258  0.53386587     1.59600
O287        O  0.27771869  0.27892648  0.51388244    -0.80000
O288        O  0.24518479  0.24053912  0.54499302    -1.90500
Cd289      Cd  0.22435845  0.25836131  0.56139529     1.59900
O290        O  0.21226801  0.21259922  0.51323955    -0.80000
O291        O  0.21998567  0.21420775  0.57765883    -0.78600
C292        C  0.21756571  0.12725633  0.53843296     0.83900
C293        C  0.36827659  0.27598155  0.54148633     0.83600
O294        O  0.24788032  0.17411950  0.56777983    -0.77600
C295        C  0.27430853  0.35808577  0.55033345     0.84400
O296        O  0.25563022  0.16206274  0.53627915    -0.77700
C297        C  0.24651197  0.24577943  0.50730636     0.84500
C298        C  0.12800848  0.22018877  0.54999573     0.84800
O299        O  0.13608600  0.20193433  0.53969988    -0.80100
O300        O  0.24940010  0.31761791  0.43174457    -0.77600
C301        C  0.12893286  0.21567075  0.45814200     0.83400
O302        O  0.31508613  0.36131100  0.46121617    -0.78700
O303        O  0.21956748  0.21285406  0.48576413    -0.80200
O304        O  0.24116433  0.16120930  0.43911856    -0.80000
O305        O  0.27825923  0.27819526  0.42200597    -0.78600
Zn306      Zn  0.22374586  0.28362249  0.44928857     1.55700
O307        O  0.20899921  0.14434912  0.45998267    -0.80000
Cd308      Cd  0.27327511  0.23365696  0.43826542     1.59700
Cd309      Cd  0.30475472  0.29595713  0.46579336     1.59600
O310        O  0.34012671  0.25079423  0.44057415    -0.80000
O311        O  0.25211870  0.25134661  0.45462643    -1.90500
Cd312      Cd  0.20547478  0.19982819  0.46545115     1.59900
O313        O  0.36124343  0.29016540  0.46007465    -0.80000
O314        O  0.14002491  0.18926571  0.46395844    -0.78600
C315        C  0.27933263  0.36449908  0.46114156     0.83900
C316        C  0.27107246  0.31198409  0.42208686     0.83600
O317        O  0.15685632  0.24933111  0.45095838    -0.77600
C318        C  0.22318793  0.13389580  0.44933949     0.84400
O319        O  0.24121663  0.32962805  0.46318487    -0.77700
C320        C  0.36943092  0.27182348  0.44982543     0.84500
C321        C  0.25064850  0.24608886  0.49234222     0.84800
O322        O  0.28479630  0.27936352  0.48640904    -0.80100
O323        O  0.25260595  0.09182122  0.54881718    -0.77600
C324        C  0.31533003  0.04040870  0.57763596     0.83400
O325        O  0.36455684  0.04557392  0.53849245    -0.78700
O326        O  0.25410386  0.41008613  0.55918993    -0.80200
O327        O  0.14757213  0.43481018  0.53975828    -0.80000
O328        O  0.19256747  0.04867918  0.53579750    -0.78600
Zn329      Zn  0.28692494  0.05924023  0.55042812     1.55700
O330        O  0.16446478  0.41949704  0.56061731    -0.80000
Cd331      Cd  0.20308096  0.49376748  0.53430709     1.59700
Cd332      Cd  0.29918877  0.49050331  0.53394444     1.59600
O333        O  0.21599200  0.49249335  0.51400616    -0.80000
O334        O  0.25461002  0.99858771  0.54511767    -1.90500
Cd335      Cd  0.23694158  0.45980920  0.56148941     1.59900
O336        O  0.28238315  0.49350008  0.51332957    -0.80000
O337        O  0.28148650  0.49946875  0.57774576    -0.78600
C338        C  0.36769577  0.08448835  0.53856991     0.83900
C339        C  0.21894555  0.08612394  0.54163785     0.83600
O340        O  0.32101621  0.06762468  0.56794792    -0.77600
C341        C  0.13713572  0.41016253  0.55039700     0.84400
O342        O  0.33280299  0.08768530  0.53649316    -0.77700
C343        C  0.24906660  0.49435081  0.50741150     0.84500
C344        C  0.27512234  0.40179335  0.54993586     0.84800
O345        O  0.29345327  0.42829922  0.53968518    -0.80100
O346        O  0.17573812  0.42473421  0.43201574    -0.77600
C347        C  0.27800998  0.40571843  0.45804288     0.83400
O348        O  0.13277793  0.44657612  0.46148725    -0.78700
O349        O  0.28141427  0.99935221  0.48583949    -0.80200
O350        O  0.33301905  0.07244286  0.43922308    -0.80000
O351        O  0.21612998  0.99258725  0.42210162    -0.78600
Zn352      Zn  0.21010068  0.43286402  0.44946681     1.55700
O353        O  0.34983517  0.05709387  0.46008407    -0.80000
Cd354      Cd  0.26056956  0.03213085  0.43835702     1.59700
Cd355      Cd  0.19826460  0.50168804  0.46593035     1.59600
O356        O  0.24342898  0.08184359  0.44057149    -0.80000
O357        O  0.24273614  0.49347060  0.45475138    -1.90500
Cd358      Cd  0.29423738  0.49811521  0.46552589     1.59900
O359        O  0.20404766  0.06381936  0.46007198    -0.80000
O360        O  0.30445574  0.44304186  0.46393585    -0.78600
C361        C  0.12965818  0.40767088  0.46146241     0.83900
C362        C  0.18185505  0.45191093  0.42227443     0.83600
O363        O  0.24435791  0.40020353  0.45089325    -0.77600
C364        C  0.36031490  0.08177483  0.44944940     0.84400
O365        O  0.16460950  0.40456571  0.46351935    -0.77700
C366        C  0.22238274  0.09020890  0.44979467     0.84500
C367        C  0.24848295  0.99777520  0.49244471     0.84800
O368        O  0.21527451  0.99886550  0.48653728    -0.80100
O369        O  0.40320522  0.15517512  0.54881939    -0.77600
C370        C  0.45508215  0.26971235  0.57749407     0.83400
O371        O  0.44980207  0.31321164  0.53832534    -0.78700
O372        O  0.08508910  0.33795413  0.55919235    -0.80200
O373        O  0.06035172  0.20662310  0.53984368    -0.80000
O374        O  0.44634357  0.13785214  0.53594497    -0.78600
Zn375      Zn  0.43599062  0.22207499  0.55035001     1.55700
O376        O  0.07581908  0.23909162  0.56065950    -0.80000
Cd377      Cd  0.50136072  0.20315707  0.53437798     1.59700
Cd378      Cd  0.50483996  0.30269161  0.53386698     1.59600
O379        O  0.00248884  0.21695962  0.51405944    -0.80000
O380        O  0.49665453  0.25008701  0.54508902    -1.90500
Cd381      Cd  0.03540613  0.27116252  0.56146093     1.59900
O382        O  0.00166160  0.28242915  0.51328620    -0.80000
O383        O  0.99586941  0.27639150  0.57765021    -0.78600
C384        C  0.41088837  0.27745007  0.53835180     0.83900
C385        C  0.40885868  0.12702289  0.54172460     0.83600
O386        O  0.42780134  0.24824891  0.56780990    -0.77600
C387        C  0.08509841  0.22098037  0.55046146     0.84400
O388        O  0.40778422  0.23940235  0.53629834    -0.77700
C389        C  0.00060835  0.24808421  0.50742139     0.84500
C390        C  0.09345458  0.36727810  0.54994389     0.84800
O391        O  0.06706291  0.35912441  0.53965745    -0.80100
O392        O  0.07001685  0.24465685  0.43201583    -0.77600
C393        C  0.08853603  0.36508157  0.45831191     0.83400
O394        O  0.04748043  0.17862827  0.46143058    -0.78700
O395        O  0.49489177  0.27484359  0.48583920    -0.80200
O396        O  0.42172881  0.25298181  0.43922929    -0.80000
O397        O  0.50189809  0.21623591  0.42218870    -0.78600
Zn398      Zn  0.06156119  0.27012900  0.44956865     1.55700
O399        O  0.43695980  0.28529354  0.46006752    -0.80000
Cd400      Cd  0.46211813  0.22090465  0.43841518     1.59700
Cd401      Cd  0.49258201  0.18925982  0.46599138     1.59600
O402        O  0.41244978  0.15399851  0.44064663    -0.80000
O403        O  0.00082427  0.24196153  0.45479919    -1.90500
Cd404      Cd  0.49599359  0.28880485  0.46553613     1.59900
O405        O  0.43031605  0.13286621  0.46021607    -0.80000
O406        O  0.05093599  0.35423373  0.46401904    -0.78600
C407        C  0.08644567  0.21432047  0.46138202     0.83900
C408        C  0.04282557  0.22329219  0.42230623     0.83600
O409        O  0.09431725  0.33693066  0.45126554    -0.77600
C410        C  0.41233812  0.27102074  0.44942172     0.84400
O411        O  0.08971251  0.25239439  0.46352534    -0.77700
C412        C  0.40399828  0.12468486  0.44991027     0.84500
C413        C  0.49686130  0.24374473  0.49246567     0.84800
O414        O  0.49586888  0.20944335  0.48659003    -0.80100
O415        O  0.49174976  0.06951629  0.28440246    -0.77600
C416        C  0.10635810  0.12153087  0.25564309     0.83400
O417        O  0.14993318  0.11602046  0.29476305    -0.78700
O418        O  0.17450750  0.25142473  0.27396071    -0.80200
O419        O  0.04348506  0.22669223  0.29338026    -0.80000
O420        O  0.47459499  0.11267217  0.29732975    -0.78600
Zn421      Zn  0.05869259  0.10225208  0.28280716     1.55700
O422        O  0.07553983  0.24183867  0.27250327    -0.80000
Cd423      Cd  0.03997677  0.16765373  0.29888192     1.59700
Cd424      Cd  0.13947035  0.17104618  0.29928363     1.59600
O425        O  0.05379909  0.16842039  0.31920813    -0.80000
O426        O  0.08677768  0.16288053  0.28811156    -1.90500
Cd427      Cd  0.10776180  0.20164174  0.27173690     1.59900
O428        O  0.11918629  0.16740146  0.31989316    -0.80000
O429        O  0.11305948  0.16230963  0.25552781    -0.78600
C430        C  0.11418184  0.07709343  0.29475571     0.83900
C431        C  0.46366972  0.07518369  0.29153615     0.83600
O432        O  0.08482766  0.09415093  0.26530275    -0.77600
C433        C  0.05759858  0.25124932  0.28271393     0.84400
O434        O  0.07610793  0.07394731  0.29680960    -0.77700
C435        C  0.08483147  0.16620674  0.32580237     0.84500
C436        C  0.20392012  0.25978596  0.28317809     0.84800
O437        O  0.19585913  0.23337090  0.29345788    -0.80100
O438        O  0.08126004  0.23399162  0.40132918    -0.77600
C439        C  0.20174594  0.25265138  0.37487671     0.83400
O440        O  0.01534188  0.21188828  0.37189330    -0.78700
O441        O  0.11135299  0.15955107  0.34733927    -0.80200
O442        O  0.08972196  0.08602909  0.39399021    -0.80000
O443        O  0.05256731  0.16571192  0.41105963    -0.78600
Zn444      Zn  0.10685750  0.22572162  0.38375721     1.55700
O445        O  0.12169170  0.10115854  0.37309958    -0.80000
Cd446      Cd  0.05747817  0.12620535  0.39481202     1.59700
Cd447      Cd  0.02583224  0.15694238  0.36730116     1.59600
O448        O  0.49062690  0.07642619  0.39257062    -0.80000
O449        O  0.07855240  0.16505820  0.37845368    -1.90500
Cd450      Cd  0.12526386  0.16022611  0.36764714     1.59900
O451        O  0.46940955  0.09457465  0.37306636    -0.80000
O452        O  0.19074555  0.21505721  0.36914519    -0.78600
C453        C  0.05105442  0.25084453  0.37192344     0.83900
C454        C  0.05966835  0.20664297  0.41098668     0.83600
O455        O  0.17375003  0.25844607  0.38200889    -0.77600
C456        C  0.10760939  0.07660989  0.38376599     0.84400
O457        O  0.08917112  0.25410122  0.36985614    -0.77700
C458        C  0.46126473  0.06810103  0.38333366     0.84500
C459        C  0.08035817  0.16186390  0.34075709     0.84800
O460        O  0.04604608  0.16072215  0.34667776    -0.80100
O461        O  0.07903747  0.50648847  0.28448571    -0.77600
C462        C  0.01711789  0.39330064  0.25553939     0.83400
O463        O  0.46717034  0.34819800  0.29457680    -0.78700
O464        O  0.07785269  0.32354140  0.27390199    -0.80200
O465        O  0.18424716  0.45456442  0.29350016    -0.80000
O466        O  0.13914182  0.02344189  0.29747767    -0.78600
Zn467      Zn  0.04485380  0.43968720  0.28284076     1.55700
O468        O  0.16751819  0.42270407  0.27259699    -0.80000
Cd469      Cd  0.12863265  0.45795643  0.29895313     1.59700
Cd470      Cd  0.03250232  0.35849525  0.29916196     1.59600
O471        O  0.11536567  0.44334752  0.31923119    -0.80000
O472        O  0.07722933  0.41135809  0.28808979    -1.90500
Cd473      Cd  0.09509434  0.39051404  0.27170624     1.59900
O474        O  0.04904201  0.37788196  0.31979513    -0.80000
O475        O  0.05101909  0.38628888  0.25542091    -0.78600
C476        C  0.46401068  0.38395819  0.29457449     0.83900
C477        C  0.11274126  0.03449551  0.29163252     0.83600
O478        O  0.01109321  0.41439298  0.26528461    -0.77600
C479        C  0.19478408  0.44055357  0.28283327     0.84400
O480        O  0.49885337  0.42198183  0.29674669    -0.77700
C481        C  0.08225324  0.41195687  0.32576886     0.84500
C482        C  0.05675301  0.29412182  0.28312338     0.84800
O483        O  0.03832465  0.30217132  0.29337199    -0.80100
O484        O  0.15434300  0.41407277  0.40122472    -0.77600
C485        C  0.05238427  0.29339167  0.37503326     0.83400
O486        O  0.19786431  0.47947652  0.37184743    -0.78700
O487        O  0.04957351  0.38425971  0.34728652    -0.80200
O488        O  0.49759909  0.40532819  0.39389320    -0.80000
O489        O  0.11433172  0.44206598  0.41108835    -0.78600
Zn490      Zn  0.12025164  0.38828152  0.38372993     1.55700
O491        O  0.48085837  0.37322095  0.37302210    -0.80000
Cd492      Cd  0.07003470  0.43742849  0.39480456     1.59700
Cd493      Cd  0.13253308  0.46925685  0.36731752     1.59600
O494        O  0.08728147  0.00433262  0.39256561    -0.80000
O495        O  0.08785205  0.41650878  0.37842935    -1.90500
Cd496      Cd  0.03646055  0.36982539  0.36758206     1.59900
O497        O  0.12683224  0.02565968  0.37309869    -0.80000
O498        O  0.02608598  0.30442420  0.36911141    -0.78600
C499        C  0.20094876  0.44367330  0.37186805     0.83900
C500        C  0.14837081  0.43526662  0.41095226     0.83600
O501        O  0.08596625  0.32141236  0.38222165    -0.77600
C502        C  0.47033700  0.38737523  0.38365953     0.84400
O503        O  0.16602357  0.40564790  0.36976657    -0.77700
C504        C  0.10841482  0.03373278  0.38334625     0.84500
C505        C  0.08265076  0.41565027  0.34073766     0.84800
O506        O  0.11585613  0.44975454  0.34670124    -0.80100
O507        O  0.42866501  0.41927507  0.28430993    -0.77600
C508        C  0.37722095  0.48219245  0.25556285     0.83400
O509        O  0.38218990  0.03083551  0.29483438    -0.78700
O510        O  0.24693100  0.42060013  0.27396237    -0.80200
O511        O  0.27159360  0.31382132  0.29329931    -0.80000
O512        O  0.38539772  0.35877827  0.29714834    -0.78600
Zn513      Zn  0.39601013  0.45351586  0.28274515     1.55700
O514        O  0.25607777  0.33087969  0.27249710    -0.80000
Cd515      Cd  0.33053677  0.36926691  0.29872115     1.59700
Cd516      Cd  0.32712571  0.46528902  0.29930335     1.59600
O517        O  0.32922564  0.38166668  0.31903791    -0.80000
O518        O  0.33532392  0.42098016  0.28802145    -1.90500
Cd519      Cd  0.29660261  0.40342006  0.27163534     1.59900
O520        O  0.33001663  0.44792656  0.31988751    -0.80000
O521        O  0.33632653  0.44824084  0.25541420    -0.78600
C522        C  0.42112991  0.03401439  0.29471844     0.83900
C523        C  0.42291486  0.38540712  0.29138861     0.83600
O524        O  0.40439573  0.48785632  0.26526460    -0.77600
C525        C  0.24681962  0.30347183  0.28269561     0.84400
O526        O  0.42433179  0.99911919  0.29676051    -0.77700
C527        C  0.33093012  0.41450642  0.32571732     0.84500
C528        C  0.23850981  0.44140345  0.28325290     0.84800
O529        O  0.26488789  0.45952940  0.29354542    -0.80100
O530        O  0.26070464  0.33974385  0.40106062    -0.77600
C531        C  0.24206136  0.44219115  0.37500186     0.83400
O532        O  0.28320669  0.29701595  0.37153294    -0.78700
O533        O  0.33590534  0.44631200  0.34736532    -0.80200
O534        O  0.40896473  0.49695483  0.39396269    -0.80000
O535        O  0.32867566  0.37967020  0.41095324    -0.78600
Zn536      Zn  0.26906799  0.37409643  0.38357780     1.55700
O537        O  0.39360473  0.01411699  0.37315666    -0.80000
Cd538      Cd  0.36841697  0.42444004  0.39475955     1.59700
Cd539      Cd  0.33814318  0.36266241  0.36707394     1.59600
O540        O  0.41809658  0.40726909  0.39248739    -0.80000
O541        O  0.32979273  0.40687755  0.37835597    -1.90500
Cd542      Cd  0.33459596  0.45866618  0.36769365     1.59900
O543        O  0.40037765  0.36851499  0.37287487    -0.80000
O544        O  0.27963465  0.46903138  0.36930123    -0.78600
C545        C  0.24424218  0.29376973  0.37161780     0.83900
C546        C  0.28786896  0.34559006  0.41078464     0.83600
O547        O  0.23630386  0.40818117  0.38200421    -0.77600
C548        C  0.41832256  0.02441355  0.38377606     0.84400
O549        O  0.24101111  0.32861494  0.36951430    -0.77700
C550        C  0.42662974  0.38655017  0.38319854     0.84500
C551        C  0.33426885  0.41350969  0.34067857     0.84800
O552        O  0.33525214  0.38011181  0.34649988    -0.80100
O553        O  0.42188193  0.42889230  0.21530925    -0.77600
C554        C  0.48375912  0.37685283  0.24419639     0.83400
O555        O  0.03346165  0.38208371  0.20520774    -0.78700
O556        O  0.42227692  0.24684316  0.22592958    -0.80200
O557        O  0.31630392  0.27168122  0.20627126    -0.80000
O558        O  0.36156141  0.38579340  0.20238162    -0.78600
Zn559      Zn  0.45599718  0.39609540  0.21693897     1.55700
O560        O  0.33292603  0.25675663  0.22722176    -0.80000
Cd561      Cd  0.37197732  0.33077944  0.20082938     1.59700
Cd562      Cd  0.46802774  0.32720184  0.20064093     1.59600
O563        O  0.38563713  0.33017932  0.18053259    -0.80000
O564        O  0.42334148  0.33545218  0.21168988    -1.90500
Cd565      Cd  0.40530102  0.29672754  0.22806908     1.59900
O566        O  0.45189434  0.33085346  0.18000880    -0.80000
O567        O  0.44953220  0.33616781  0.24432999    -0.78600
C568        C  0.03673897  0.42105155  0.20511343     0.83900
C569        C  0.38812888  0.42326138  0.20818633     0.83600
O570        O  0.48996372  0.40413175  0.23447456    -0.77600
C571        C  0.30571591  0.24723974  0.21696916     0.84400
O572        O  0.00189334  0.42427738  0.20297202    -0.77700
C573        C  0.41895790  0.33222730  0.17402045     0.84500
C574        C  0.44348966  0.23850394  0.21675473     0.84800
O575        O  0.46198880  0.26493390  0.20649332    -0.80100
O576        O  0.34870596  0.26447034  0.09852259    -0.77600
C577        C  0.45052460  0.24580779  0.12494187     0.83400
O578        O  0.30479462  0.28634256  0.12783927    -0.78700
O579        O  0.45261656  0.33884456  0.15255930    -0.80200
O580        O  0.00517040  0.41215526  0.10584482    -0.80000
O581        O  0.38843892  0.33268064  0.08876459    -0.78600
Zn582      Zn  0.38258891  0.27271097  0.11607756     1.55700
O583        O  0.02183818  0.39720782  0.12678802    -0.80000
Cd584      Cd  0.43277490  0.37215799  0.10501838     1.59700
Cd585      Cd  0.37007654  0.34138445  0.13243647     1.59600
O586        O  0.41580097  0.42202127  0.10724386    -0.80000
O587        O  0.41488061  0.33334531  0.12137921    -1.90500
Cd588      Cd  0.46625435  0.33816692  0.13226583     1.59900
O589        O  0.37602335  0.40370110  0.12666914    -0.80000
O590        O  0.47685658  0.28326281  0.13078824    -0.78600
C591        C  0.30163757  0.24742015  0.12788716     0.83900
C592        C  0.35455493  0.29179262  0.08884943     0.83600
O593        O  0.41691286  0.24012104  0.11773632    -0.77600
C594        C  0.03241201  0.42163405  0.11608862     0.84400
O595        O  0.33654071  0.24425021  0.12998230    -0.77700
C596        C  0.39459384  0.43027625  0.11644188     0.84500
C597        C  0.41918114  0.33656000  0.15906551     0.84800
O598        O  0.38613907  0.33770320  0.15307001    -0.80100
O599        O  0.07223111  0.49152133  0.21545587    -0.77600
C600        C  0.12339629  0.10505702  0.24433017     0.83400
O601        O  0.11841335  0.14976524  0.20518918    -0.78700
O602        O  0.25378755  0.17503451  0.22583198    -0.80200
O603        O  0.22920745  0.04350229  0.20641439    -0.80000
O604        O  0.11528368  0.47470961  0.20236744    -0.78600
Zn605      Zn  0.10475931  0.05832116  0.21708786     1.55700
O606        O  0.24472785  0.07604747  0.22722302    -0.80000
Cd607      Cd  0.17029492  0.04015129  0.20093259     1.59700
Cd608      Cd  0.17348271  0.13952409  0.20060293     1.59600
O609        O  0.17209827  0.05470808  0.18064224    -0.80000
O610        O  0.16544030  0.08682993  0.21175721    -1.90500
Cd611      Cd  0.20426058  0.10804239  0.22811732     1.59900
O612        O  0.17095167  0.12002202  0.17998927    -0.80000
O613        O  0.16446681  0.11250307  0.24440215    -0.78600
C614        C  0.07949640  0.11401618  0.20534161     0.83900
C615        C  0.07789080  0.46359252  0.20825736     0.83600
O616        O  0.09620344  0.08351749  0.23464560    -0.77600
C617        C  0.25396362  0.05788553  0.21702746     0.84400
O618        O  0.07620830  0.07590466  0.20323734    -0.77700
C619        C  0.17043976  0.08605024  0.17405709     0.84500
C620        C  0.26203991  0.20432922  0.21657442     0.84800
O621        O  0.23555535  0.19609288  0.20631863    -0.80100
O622        O  0.24196664  0.08433680  0.09859430    -0.77600
C623        C  0.26047775  0.20483603  0.12479928     0.83400
O624        O  0.21987066  0.01880457  0.12803195    -0.78700
O625        O  0.16623147  0.11390190  0.15249520    -0.80200
O626        O  0.09368842  0.09284551  0.10591898    -0.80000
O627        O  0.17394009  0.05611380  0.08873050    -0.78600
Zn628      Zn  0.23348899  0.10999328  0.11609192     1.55700
O629        O  0.10923221  0.12525793  0.12674512    -0.80000
Cd630      Cd  0.13411221  0.06075235  0.10499228     1.59700
Cd631      Cd  0.16468159  0.02899568  0.13253231     1.59600
O632        O  0.08444360  0.49382630  0.10724367    -0.80000
O633        O  0.17281131  0.08171676  0.12138042    -1.90500
Cd634      Cd  0.16807611  0.12844657  0.13220514     1.59900
O635        O  0.10261484  0.47258106  0.12673716    -0.80000
O636        O  0.22316361  0.19378549  0.13072909    -0.78600
C637        C  0.25875117  0.05461376  0.12796227     0.83900
C638        C  0.21484456  0.06307297  0.08886495     0.83600
O639        O  0.26605459  0.17683847  0.11760552    -0.77600
C640        C  0.08446966  0.11096380  0.11613287     0.84400
O641        O  0.26185498  0.09263952  0.13006774    -0.77700
C642        C  0.07613811  0.46447227  0.11648481     0.84500
C643        C  0.16769030  0.08245739  0.15908183     0.84800
O644        O  0.16703589  0.04841557  0.15314984    -0.80100
O645        O  0.50886207  0.07887180  0.21562161    -0.77600
C646        C  0.39416024  0.01591196  0.24427835     0.83400
O647        O  0.35102147  0.46767035  0.20491129    -0.78700
O648        O  0.32601318  0.07774976  0.22588997    -0.80200
O649        O  0.45736605  0.18459311  0.20665332    -0.80000
O650        O  0.02632105  0.13955963  0.20283966    -0.78600
Zn651      Zn  0.44196951  0.04475190  0.21713842     1.55700
O652        O  0.42462180  0.16741420  0.22743014    -0.80000
Cd653      Cd  0.46106540  0.12924288  0.20119906     1.59700
Cd654      Cd  0.36167663  0.03331942  0.20047310     1.59600
O655        O  0.44789044  0.11702389  0.18084022    -0.80000
O656        O  0.41401999  0.07744393  0.21183684    -1.90500
Cd657      Cd  0.39278675  0.09491472  0.22823035     1.59900
O658        O  0.38246671  0.05076998  0.17990199    -0.80000
O659        O  0.38744674  0.05000870  0.24443954    -0.78600
C660        C  0.38676719  0.46446740  0.20504268     0.83900
C661        C  0.03705203  0.11274250  0.20855797     0.83600
O662        O  0.41566128  0.01018537  0.23458410    -0.77600
C663        C  0.44279463  0.19485764  0.21724480     0.84400
O664        O  0.42487642  0.49938658  0.20306058    -0.77700
C665        C  0.41696858  0.08415185  0.17411598     0.84500
C666        C  0.29686084  0.05708730  0.21657636     0.84800
O667        O  0.30518837  0.03913572  0.20624725    -0.80100
O668        O  0.42249981  0.15854367  0.09865376    -0.77600
C669        C  0.30132749  0.05609331  0.12478403     0.83400
O670        O  0.48759438  0.20138492  0.12828431    -0.78700
O671        O  0.39080124  0.05214197  0.15244564    -0.80200
O672        O  0.41353128  0.00145582  0.10583279    -0.80000
O673        O  0.45066452  0.11863232  0.08882381    -0.78600
Zn674      Zn  0.39642160  0.12421780  0.11615633     1.55700
O675        O  0.38105472  0.48431030  0.12664464    -0.80000
Cd676      Cd  0.44552529  0.07394279  0.10505039     1.59700
Cd677      Cd  0.47692024  0.13573852  0.13276691     1.59600
O678        O  0.01232701  0.09107670  0.10732956    -0.80000
O679        O  0.42443658  0.09154815  0.12144711    -1.90500
Cd680      Cd  0.37745186  0.03974364  0.13210393     1.59900
O681        O  0.03335404  0.12982998  0.12694604    -0.80000
O682        O  0.31211588  0.02928342  0.13047878    -0.78600
C683        C  0.45187484  0.20463807  0.12815572     0.83900
C684        C  0.44392265  0.15270411  0.08895741     0.83600
O685        O  0.32952482  0.09007874  0.11775962    -0.77600
C686        C  0.39542139  0.47399619  0.11601567     0.84400
O687        O  0.41376242  0.16977794  0.13019047    -0.77700
C688        C  0.04157985  0.11180077  0.11661413     0.84500
C689        C  0.42174894  0.08503632  0.15915723     0.84800
O690        O  0.45624072  0.11840443  0.15335959    -0.80100
O691        O  0.32702608  0.25382825  0.06781625    -0.77600
C692        C  0.22519447  0.13342705  0.04151979     0.83400
O693        O  0.37075560  0.31967319  0.03840745    -0.78700
O694        O  0.22235736  0.22409291  0.01384957    -0.80200
O695        O  0.17061592  0.24546018  0.06052421    -0.80000
O696        O  0.28723885  0.28216942  0.07762318    -0.78600
Zn697      Zn  0.29313809  0.22830488  0.05027247     1.55700
O698        O  0.15370267  0.21339472  0.03964850    -0.80000
Cd699      Cd  0.24302011  0.27757483  0.06135119     1.59700
Cd700      Cd  0.30538518  0.30931574  0.03382826     1.59600
O701        O  0.26029504  0.34448077  0.05913252    -0.80000
O702        O  0.26076575  0.25659137  0.04496975    -1.90500
Cd703      Cd  0.20924309  0.20989216  0.03415818     1.59900
O704        O  0.29963402  0.36575418  0.03962611    -0.80000
O705        O  0.19874670  0.14442530  0.03567846    -0.78600
C706        C  0.37395808  0.28393550  0.03846542     0.83900
C707        C  0.32112845  0.27515189  0.07752080     0.83600
O708        O  0.25889179  0.16147028  0.04866499    -0.77600
C709        C  0.14326275  0.22751270  0.05031357     0.84400
O710        O  0.33911366  0.24585118  0.03635900    -0.77700
C711        C  0.28134800  0.37386992  0.04990508     0.84500
C712        C  0.25552477  0.25526869  0.00727094     0.84800
O713        O  0.28875743  0.28946148  0.01320367    -0.80100
O714        O  0.25174383  0.34475591  0.95071150    -0.77600
C715        C  0.18893702  0.23030184  0.92208631     0.83400
O716        O  0.13986960  0.18685690  0.96124840    -0.78700
O717        O  0.25052805  0.16187865  0.94051487    -0.80200
O718        O  0.35681071  0.29297944  0.95992910    -0.80000
O719        O  0.31154783  0.36173034  0.96386101    -0.78600
Zn720      Zn  0.21742674  0.27784886  0.94923909     1.55700
O721        O  0.34002798  0.26081840  0.93906446    -0.80000
Cd722      Cd  0.30126507  0.29640743  0.96539981     1.59700
Cd723      Cd  0.20523782  0.19707833  0.96576216     1.59600
O724        O  0.28830950  0.28233804  0.98571891    -0.80000
O725        O  0.24982632  0.24967288  0.95458594    -1.90500
Cd726      Cd  0.26758054  0.22865560  0.93821331     1.59900
O727        O  0.22193620  0.21697095  0.98637681    -0.80000
O728        O  0.22298494  0.22351944  0.92195803    -0.78600
C729        C  0.13680686  0.22267803  0.96120826     0.83900
C730        C  0.28523826  0.37274148  0.95793921     0.83600
O731        O  0.18311460  0.25174532  0.93177278    -0.77600
C732        C  0.36730833  0.27879575  0.94929266     0.84400
O733        O  0.17178568  0.26072311  0.96323301    -0.77700
C734        C  0.25516794  0.25116977  0.99230462     0.84500
C735        C  0.22943880  0.13253555  0.94974870     0.84800
O736        O  0.21102084  0.14064672  0.95999389    -0.80100
O737        O  0.43363946  0.18052481  0.06793526    -0.77600
C738        C  0.41510780  0.28258147  0.04165791     0.83400
O739        O  0.45585657  0.13719371  0.03842461    -0.78700
O740        O  0.00881592  0.28592479  0.01402336    -0.80200
O741        O  0.08194568  0.33721042  0.06062535    -0.80000
O742        O  0.00175025  0.22017124  0.07775859    -0.78600
Zn743      Zn  0.44206625  0.21465458  0.05041292     1.55700
O744        O  0.06652951  0.35417163  0.03979166    -0.80000
Cd745      Cd  0.04147254  0.26472559  0.06150193     1.59700
Cd746      Cd  0.01087533  0.20263570  0.03390568     1.59600
O747        O  0.09115293  0.24751700  0.05919830    -0.80000
O748        O  0.00273297  0.24709767  0.04511914    -1.90500
Cd749      Cd  0.00754753  0.29867779  0.03433822     1.59900
O750        O  0.07310108  0.20843606  0.03964404    -0.80000
O751        O  0.45258634  0.30909724  0.03585488    -0.78600
C752        C  0.41692707  0.13403089  0.03850715     0.83900
C753        C  0.46082512  0.18628497  0.07764223     0.83600
O754        O  0.40942178  0.24886595  0.04880206    -0.77600
C755        C  0.09125324  0.36456636  0.05041355     0.84400
O756        O  0.41372293  0.16891365  0.03644051    -0.77700
C757        C  0.09953369  0.22665098  0.04991713     0.84500
C758        C  0.00699173  0.25290820  0.00740654     0.84800
O759        O  0.00787999  0.21958278  0.01330292    -0.80100
O760        O  0.10131619  0.25809454  0.95110897    -0.77600
C761        C  0.04962788  0.32009198  0.92227357     0.83400
O762        O  0.05437374  0.36932534  0.96144209    -0.78700
O763        O  0.41948992  0.25868716  0.94053041    -0.80200
O764        O  0.44412470  0.15213440  0.96009032    -0.80000
O765        O  0.05816434  0.19744092  0.96390514    -0.78600
Zn766      Zn  0.06851805  0.29214970  0.94954725     1.55700
O767        O  0.42886603  0.16901770  0.93922849    -0.80000
Cd768      Cd  0.00314320  0.20776940  0.96551447     1.59700
Cd769      Cd  0.99946067  0.30374610  0.96593631     1.59600
O770        O  0.50198898  0.22065006  0.98582426    -0.80000
O771        O  0.00782043  0.25933931  0.95476140    -1.90500
Cd772      Cd  0.46920929  0.24148775  0.93835477     1.59900
O773        O  0.50239223  0.28674728  0.98654570    -0.80000
O774        O  0.50892839  0.28584227  0.92210172    -0.78600
C775        C  0.09333836  0.37257981  0.96143626     0.83900
C776        C  0.09565100  0.22416718  0.95813748     0.83600
O777        O  0.07674996  0.32629785  0.93204172    -0.77600
C778        C  0.41948864  0.14167703  0.94944534     0.84400
O779        O  0.09655455  0.33774545  0.96358568    -0.77700
C780        C  0.50354318  0.25354899  0.99244033     0.84500
C781        C  0.41100266  0.27960521  0.94976743     0.84800
O782        O  0.43727959  0.29782073  0.96007437    -0.80100
O783        O  0.25320743  0.07383311  0.06786160    -0.77600
C784        C  0.37439046  0.09286963  0.04166282     0.83400
O785        O  0.18811678  0.05192187  0.03831703    -0.78700
O786        O  0.28432638  0.49933153  0.01396049    -0.80200
O787        O  0.26257195  0.42609851  0.06057891    -0.80000
O788        O  0.22518807  0.50574825  0.07766711    -0.78600
Zn789      Zn  0.27934110  0.06574827  0.05035895     1.55700
O790        O  0.29481634  0.44146442  0.03973004    -0.80000
Cd791      Cd  0.23036466  0.46635299  0.06141755     1.59700
Cd792      Cd  0.19865272  0.99689525  0.03383536     1.59600
O793        O  0.16356384  0.41659183  0.05917270    -0.80000
O794        O  0.25131793  0.00512719  0.04504135    -1.90500
Cd795      Cd  0.29820225  0.00043413  0.03428221     1.59900
O796        O  0.14226310  0.43464740  0.03966600    -0.80000
O797        O  0.36351528  0.05542689  0.03585060    -0.78600
C798        C  0.22384131  0.09086967  0.03838539     0.83900
C799        C  0.23181710  0.04651207  0.07754565     0.83600
O800        O  0.34627199  0.09850035  0.04878725    -0.77600
C801        C  0.28058661  0.41678315  0.05036321     0.84400
O802        O  0.26195956  0.09408571  0.03636308    -0.77700
C803        C  0.13417029  0.40823858  0.04994558     0.84500
C804        C  0.25314355  0.50116652  0.00733771     0.84800
O805        O  0.21880259  0.50006646  0.01322644    -0.80100
O806        O  0.16378877  0.40786017  0.95103704    -0.77600
C807        C  0.27786805  0.45939221  0.92208589     0.83400
O808        O  0.32215759  0.45415330  0.96125869    -0.78700
O809        O  0.34728270  0.08964796  0.94061049    -0.80200
O810        O  0.21601956  0.06505048  0.95997802    -0.80000
O811        O  0.14694072  0.45122108  0.96396572    -0.78600
Zn812      Zn  0.23065721  0.44044041  0.94929942     1.55700
O813        O  0.24830608  0.08031210  0.93913257    -0.80000
Cd814      Cd  0.21243875  0.00602472  0.96544857     1.59700
Cd815      Cd  0.31178348  0.00916852  0.96585929     1.59600
O816        O  0.22639914  0.00707837  0.98576087    -0.80000
O817        O  0.25915146  0.00109820  0.95466075    -1.90500
Cd818      Cd  0.28041763  0.03998448  0.93830985     1.59900
O819        O  0.29164430  0.00580188  0.98647506    -0.80000
O820        O  0.28533691  0.00045728  0.92204781    -0.78600
C821        C  0.28644532  0.41519483  0.96110447     0.83900
C822        C  0.13585248  0.41367073  0.95819202     0.83600
O823        O  0.25603598  0.43203889  0.93171494    -0.77600
C824        C  0.23026793  0.08966860  0.94933275     0.84400
O825        O  0.24826860  0.41184174  0.96313918    -0.77700
C826        C  0.25743176  0.00493778  0.99237342     0.84500
C827        C  0.37657045  0.09796647  0.94987176     0.84800
O828        O  0.36834215  0.07148834  0.96013975    -0.80100
O829        O  0.41159450  0.67173719  0.61758123    -0.77600
C830        C  0.34894022  0.55730995  0.58893847     0.83400
O831        O  0.30051472  0.51390098  0.62830467    -0.78700
O832        O  0.41069954  0.98912958  0.60725883    -0.80200
O833        O  0.01754748  0.62048217  0.62655135    -0.80000
O834        O  0.47232336  0.68930431  0.63035884    -0.78600
Zn835      Zn  0.37753508  0.60486582  0.61610591     1.55700
O836        O  0.50038342  0.58781656  0.60576719    -0.80000
Cd837      Cd  0.46211368  0.62407950  0.63200712     1.59700
Cd838      Cd  0.36620281  0.52457364  0.63272599     1.59600
O839        O  0.44993177  0.61074287  0.65235197    -0.80000
O840        O  0.41032451  0.57699812  0.62138047    -1.90500
Cd841      Cd  0.42789248  0.55592613  0.60497671     1.59900
O842        O  0.38378373  0.54519670  0.65330374    -0.80000
O843        O  0.38315688  0.55078985  0.58876142    -0.78600
C844        C  0.29733397  0.54965389  0.62818507     0.83900
C845        C  0.44549968  0.69999252  0.62461883     0.83600
O846        O  0.34300274  0.57856082  0.59866340    -0.77600
C847        C  0.02783515  0.60597152  0.61595036     0.84400
O848        O  0.33225491  0.58771893  0.63021340    -0.77700
C849        C  0.41718489  0.57970159  0.65908302     0.84500
C850        C  0.38998992  0.95990348  0.61655060     0.84800
O851        O  0.37201758  0.96815403  0.62688919    -0.80100
O852        O  0.49223406  0.58526315  0.73451577    -0.77600
C853        C  0.38969371  0.96398194  0.70848045     0.83400
O854        O  0.03494311  0.64989592  0.70482530    -0.78700
O855        O  0.38543910  0.55343532  0.68077526    -0.80200
O856        O  0.33522552  0.57661656  0.72736102    -0.80000
O857        O  0.45264105  0.61381103  0.74432937    -0.78600
Zn858      Zn  0.45768460  0.55899870  0.71707778     1.55700
O859        O  0.31798488  0.54371295  0.70660881    -0.80000
Cd860      Cd  0.40773687  0.60845863  0.72813163     1.59700
Cd861      Cd  0.46936214  0.63943170  0.70039162     1.59600
O862        O  0.42497844  0.67523252  0.72576426    -0.80000
O863        O  0.42515558  0.58711283  0.71175510    -1.90500
Cd864      Cd  0.37334338  0.54009482  0.70112309     1.59900
O865        O  0.46372037  0.69602284  0.70614486    -0.80000
O866        O  0.36303073  0.97482879  0.70271532    -0.78600
C867        C  0.03803655  0.61409294  0.70498734     0.83900
C868        C  0.48662562  0.60692202  0.74418410     0.83600
O869        O  0.42348474  0.49208740  0.71558707    -0.77600
C870        C  0.30773087  0.55832054  0.71719293     0.84400
O871        O  0.00306420  0.57601823  0.70301196    -0.77700
C872        C  0.44571902  0.70437274  0.71645506     0.84500
C873        C  0.41827423  0.58436714  0.67404372     0.84800
O874        O  0.45177406  0.61877461  0.67982286    -0.80100
O875        O  0.32444857  0.73544261  0.61754124    -0.77600
C876        C  0.43842984  0.78667650  0.58878064     0.83400
O877        O  0.48264918  0.78140753  0.62783083    -0.78700
O878        O  0.00785087  0.91705585  0.60721005    -0.80200
O879        O  0.37653405  0.89229270  0.62669436    -0.80000
O880        O  0.30776073  0.77839517  0.63072375    -0.78600
Zn881      Zn  0.39131767  0.76791656  0.61596832     1.55700
O882        O  0.40881320  0.90774915  0.60584626    -0.80000
Cd883      Cd  0.37320535  0.83339220  0.63215820     1.59700
Cd884      Cd  0.47256897  0.83657482  0.63238733     1.59600
O885        O  0.38791351  0.83512686  0.65243932    -0.80000
O886        O  0.41980641  0.82857208  0.62129002    -1.90500
Cd887      Cd  0.44092469  0.86739037  0.60493300     1.59900
O888        O  0.45326724  0.83403076  0.65300433    -0.80000
O889        O  0.44569074  0.82767675  0.58868074    -0.78600
C890        C  0.44685790  0.74251740  0.62775804     0.83900
C891        C  0.29657049  0.74106606  0.62478349     0.83600
O892        O  0.41682034  0.75945595  0.59845325    -0.77600
C893        C  0.39077888  0.91701132  0.61607170     0.84400
O894        O  0.40877652  0.73933178  0.62985035    -0.77700
C895        C  0.41933427  0.83345840  0.65897946     0.84500
C896        C  0.03722180  0.92523678  0.61643576     0.84800
O897        O  0.02909256  0.89864414  0.62665600    -0.80100
O898        O  0.41898092  0.90479306  0.73451103    -0.77600
C899        C  0.03891675  0.92305117  0.70805033     0.83400
O900        O  0.35262263  0.88259245  0.70518784    -0.78700
O901        O  0.44731956  0.82890292  0.68048177    -0.80200
O902        O  0.42689656  0.75658292  0.72710213    -0.80000
O903        O  0.39005020  0.83654095  0.74426742    -0.78600
Zn904      Zn  0.44418660  0.89626930  0.71693798     1.55700
O905        O  0.45897589  0.77182505  0.70622696    -0.80000
Cd906      Cd  0.39461855  0.79677144  0.72799971     1.59700
Cd907      Cd  0.36276717  0.82748264  0.70057175     1.59600
O908        O  0.32765882  0.74702115  0.72575936    -0.80000
O909        O  0.41564511  0.83556297  0.71163416    -1.90500
Cd910      Cd  0.46220126  0.83068774  0.70074734     1.59900
O911        O  0.30629644  0.76537345  0.70632580    -0.80000
O912        O  0.02770259  0.88565945  0.70214664    -0.78600
C913        C  0.38837343  0.92151630  0.70526380     0.83900
C914        C  0.39742525  0.87758013  0.74419163     0.83600
O915        O  0.01103198  0.92876622  0.71525856    -0.77600
C916        C  0.44487783  0.74724162  0.71688108     0.84400
O917        O  0.42645861  0.92478662  0.70310604    -0.77700
C918        C  0.29822327  0.73880357  0.71654940     0.84500
C919        C  0.41589039  0.83059174  0.67395226     0.84800
O920        O  0.38198172  0.83004775  0.67993738    -0.80100
O921        O  0.26201021  0.58503991  0.61793451    -0.77600
C922        C  0.21020030  0.64682477  0.58886801     0.83400
O923        O  0.21505379  0.69658700  0.62786232    -0.78700
O924        O  0.07992787  0.58570039  0.60718994    -0.80200
O925        O  0.10454870  0.97943249  0.62675256    -0.80000
O926        O  0.21854611  0.52431785  0.63066026    -0.78600
Zn927      Zn  0.22920240  0.61908664  0.61616885     1.55700
O928        O  0.08963267  0.99621524  0.60582381    -0.80000
Cd929      Cd  0.16368903  0.53498401  0.63219964     1.59700
Cd930      Cd  0.16027309  0.63112300  0.63246810     1.59600
O931        O  0.16325544  0.54858094  0.65249851    -0.80000
O932        O  0.16849277  0.58648167  0.62137961    -1.90500
Cd933      Cd  0.12974258  0.56860408  0.60500469     1.59900
O934        O  0.16420118  0.61495952  0.65308189    -0.80000
O935        O  0.16937505  0.61281945  0.58875313    -0.78600
C936        C  0.25404542  0.69990861  0.62794171     0.83900
C937        C  0.25619493  0.55108873  0.62498251     0.83600
O938        O  0.23744461  0.65287264  0.59858729    -0.77600
C939        C  0.08010862  0.96892954  0.61605634     0.84400
O940        O  0.25732029  0.66510868  0.63010293    -0.77700
C941        C  0.16553902  0.58195618  0.65903631     0.84500
C942        C  0.07151550  0.60670845  0.61641589     0.84800
O943        O  0.09790663  0.62503362  0.62669611    -0.80100
O944        O  0.09814222  0.51058476  0.73432554    -0.77600
C945        C  0.07920049  0.61265177  0.70813045     0.83400
O946        O  0.12049521  0.96741359  0.70506374    -0.78700
O947        O  0.17214058  0.61539707  0.68052643    -0.80200
O948        O  0.24577188  0.66787887  0.72719983    -0.80000
O949        O  0.16594447  0.55119884  0.74427442    -0.78600
Zn950      Zn  0.10631713  0.54466820  0.71680126     1.55700
O951        O  0.23086281  0.68454552  0.70625614    -0.80000
Cd952      Cd  0.20563503  0.59547550  0.72804173     1.59700
Cd953      Cd  0.17536577  0.53294786  0.70054744     1.59600
O954        O  0.25552198  0.57848390  0.72591970    -0.80000
O955        O  0.16702307  0.57749688  0.71163713    -1.90500
Cd956      Cd  0.17172008  0.62894774  0.70082888     1.59900
O957        O  0.23770135  0.53914668  0.70641259    -0.76400
O958        O  0.11678604  0.63945079  0.70242393    -0.78600
C959        C  0.08153014  0.96415306  0.70491359     0.83900
C960        C  0.12529498  0.51688973  0.74409658     0.83600
O961        O  0.07346781  0.57869463  0.71516051    -0.77600
C962        C  0.25531575  0.69510754  0.71695048     0.84400
O963        O  0.07838789  0.99902450  0.70275289    -0.77700
C964        C  0.26402290  0.55750736  0.71670686     0.84500
C965        C  0.17008791  0.58213879  0.67398212     0.84800
O966        O  0.17161195  0.54922532  0.67993169    -0.80100
O967        O  0.09257713  0.76492129  0.88213499    -0.77600
C968        C  0.15535677  0.71346469  0.91078151     0.83400
O969        O  0.20441354  0.71877463  0.87157552    -0.78700
O970        O  0.09392141  0.58334715  0.89239740    -0.80200
O971        O  0.48732448  0.60813876  0.87298132    -0.80000
O972        O  0.03259299  0.72202619  0.86906376    -0.78600
Zn973      Zn  0.12693138  0.73237008  0.88360017     1.55700
O974        O  0.00425549  0.59272174  0.89381616    -0.80000
Cd975      Cd  0.04290701  0.66701266  0.86752754     1.59700
Cd976      Cd  0.13897795  0.66361045  0.86709315     1.59600
O977        O  0.05553115  0.66548063  0.84722652    -0.80000
O978        O  0.09447510  0.67174150  0.87829195    -1.90500
Cd979      Cd  0.07675272  0.63303518  0.89467595     1.59900
O980        O  0.12181487  0.66626766  0.84648862    -0.80000
O981        O  0.12132318  0.67263738  0.91092570    -0.78600
C982        C  0.20752954  0.75768133  0.87166785     0.83900
C983        C  0.05894355  0.75935150  0.87496688     0.83600
O984        O  0.16119760  0.74065125  0.90107095    -0.77600
C985        C  0.47689061  0.58344693  0.88360800     0.84400
O986        O  0.17260401  0.76083479  0.86960849    -0.77700
C987        C  0.08843393  0.66708724  0.84060122     0.84500
C988        C  0.11496879  0.57502887  0.88316081     0.84800
O989        O  0.13330331  0.60147634  0.87289714    -0.80100
O990        O  0.01480949  0.59659783  0.76512338    -0.77600
C991        C  0.11706935  0.57805831  0.79131251     0.83400
O992        O  0.47156177  0.61855678  0.79465511    -0.78700
O993        O  0.12053303  0.67196657  0.81900233    -0.80200
O994        O  0.17145338  0.74483308  0.77240419    -0.80000
O995        O  0.05418182  0.66478643  0.75533892    -0.78600
Zn996      Zn  0.04909052  0.60496838  0.78260133     1.55700
O997        O  0.18851018  0.72935057  0.79321462    -0.80000
Cd998      Cd  0.09895882  0.70438130  0.77156480     1.59700
Cd999      Cd  0.03695766  0.67367346  0.79916328     1.59600
O1000       O  0.08176890  0.75402713  0.77391211    -0.80000
O1001       O  0.08143070  0.66560390  0.78793313    -1.90500
Cd1002     Cd  0.13305777  0.67042752  0.79868947     1.59900
O1003       O  0.04255822  0.73583277  0.79344138    -0.80000
O1004       O  0.14343627  0.61544985  0.79718069    -0.78600
C1005       C  0.46843583  0.57964760  0.79452167     0.83900
C1006       C  0.02034969  0.62383932  0.75545816     0.83600
O1007       O  0.08344879  0.57242539  0.78412514    -0.77600
C1008       C  0.19885188  0.75410387  0.78260388     0.84400
O1009       O  0.50334163  0.57644590  0.79656442    -0.77700
C1010       C  0.06080234  0.76231593  0.78318162     0.84500
C1011       C  0.08757324  0.67020836  0.82563421     0.84800
O1012       O  0.05412434  0.67090841  0.81975288    -0.80100
O1013       O  0.24291476  0.82833592  0.88194026    -0.77600
C1014       C  0.29459529  0.94256684  0.91077613     0.83400
O1015       O  0.28954462  0.98648101  0.87159610    -0.78700
O1016       O  0.42473897  0.51129913  0.89242038    -0.80200
O1017       O  0.40021212  0.88005341  0.87306351    -0.80000
O1018       O  0.28623393  0.81110207  0.86912597    -0.78600
Zn1019     Zn  0.27566338  0.89520009  0.88357984     1.55700
O1020       O  0.41552436  0.91245704  0.89389027    -0.80000
Cd1021     Cd  0.34116833  0.87648942  0.86757892     1.59700
Cd1022     Cd  0.34452096  0.97593689  0.86706128     1.59600
O1023       O  0.34205198  0.89015444  0.84725176    -0.80000
O1024       O  0.33634837  0.92335484  0.87830055    -1.90500
Cd1025     Cd  0.37508581  0.94448772  0.89468111     1.59900
O1026       O  0.34098626  0.95549577  0.84646066    -0.80000
O1027       O  0.33549260  0.94954776  0.91088951    -0.78600
C1028       C  0.25061205  0.95073759  0.87165779     0.83900
C1029       C  0.24866226  0.80022752  0.87485532     0.83600
O1030       O  0.26731349  0.92102042  0.90109946    -0.77600
C1031       C  0.42487086  0.89436545  0.88370238     0.84400
O1032       O  0.24743313  0.91267194  0.86957998    -0.77700
C1033       C  0.33989922  0.92111583  0.84060372     0.84500
C1034       C  0.43317742  0.54057530  0.88315051     0.84800
O1035       O  0.40683770  0.53237494  0.87284415    -0.80100
O1036       O  0.40816909  0.91589910  0.76520000    -0.77600
C1037       C  0.42725962  0.53713997  0.79134415     0.83400
O1038       O  0.38602634  0.85084501  0.79473571    -0.78700
O1039       O  0.33379331  0.94753573  0.81899110    -0.80200
O1040       O  0.26021635  0.92516048  0.77236152    -0.80000
O1041       O  0.34012257  0.88796618  0.75536057    -0.78600
Zn1042     Zn  0.40002027  0.94205878  0.78268696     1.55700
O1043       O  0.27562565  0.95758694  0.79318372    -0.80000
Cd1044     Cd  0.30062884  0.89311325  0.77157127     1.59700
Cd1045     Cd  0.33110736  0.86156462  0.79920702     1.59600
O1046       O  0.25094877  0.82631676  0.77381634    -0.80000
O1047       O  0.33936479  0.91414696  0.78795363    -1.90500
Cd1048     Cd  0.33467294  0.96111185  0.79865509     1.59900
O1049       O  0.26882282  0.80519734  0.79339035    -0.80000
O1050       O  0.38971223  0.52639535  0.79706897    -0.78600
C1051       C  0.42496402  0.88657387  0.79470172     0.83900
C1052       C  0.38087442  0.89455524  0.75550467     0.83600
O1053       O  0.43292086  0.50894636  0.78427345    -0.77600
C1054       C  0.25089737  0.94323402  0.78255895     0.84400
O1055       O  0.42811036  0.92463865  0.79674861    -0.77700
C1056       C  0.24251315  0.79701615  0.78307748     0.84500
C1057       C  0.33580260  0.91651115  0.82564738     0.84800
O1058       O  0.33458919  0.88205826  0.81979856    -0.80100
O1059       O  0.18010265  0.91566773  0.88201653    -0.77600
C1060       C  0.06631818  0.85350283  0.91093043     0.83400
O1061       O  0.02180842  0.80371761  0.87184158    -0.78700
O1062       O  0.49718371  0.91464719  0.89249686    -0.80200
O1063       O  0.12809992  0.52075147  0.87292221    -0.80000
O1064       O  0.19696314  0.97567764  0.86898666    -0.78600
Zn1065     Zn  0.11322162  0.88140589  0.88367092     1.55700
O1066       O  0.09632760  0.50410186  0.89383938    -0.80000
Cd1067     Cd  0.13150926  0.96514399  0.86748530     1.59700
Cd1068     Cd  0.03210676  0.86906140  0.86727064     1.59600
O1069       O  0.11714036  0.95180316  0.84719346    -0.80000
O1070       O  0.08492379  0.91375800  0.87835935    -1.90500
Cd1071     Cd  0.06405747  0.93168921  0.89472772     1.59900
O1072       O  0.05171020  0.88545882  0.84663857    -0.80000
O1073       O  0.05938660  0.88745055  0.91102120    -0.78600
C1074       C  0.05756086  0.80052710  0.87185629     0.83900
C1075       C  0.20805633  0.94932167  0.87483711     0.83600
O1076       O  0.08762085  0.84754258  0.90122889    -0.77600
C1077       C  0.11413742  0.53132567  0.88359300     0.84400
O1078       O  0.09564779  0.83539095  0.86977048    -0.77700
C1079       C  0.08585494  0.91858660  0.84066113     0.84500
C1080       C  0.46774956  0.89350964  0.88328514     0.84800
O1081       O  0.47577121  0.87499173  0.87304962    -0.80100
O1082       O  0.08775285  0.98966997  0.76519810    -0.77600
C1083       C  0.46756428  0.88801481  0.79156568     0.83400
O1084       O  0.15407718  0.53360231  0.79449017    -0.78700
O1085       O  0.05843088  0.88553896  0.81916450    -0.80200
O1086       O  0.07937123  0.83324974  0.77253593    -0.80000
O1087       O  0.11566091  0.94958033  0.75532855    -0.78600
Zn1088     Zn  0.06246549  0.95600512  0.78278009     1.55700
O1089       O  0.04759963  0.81652562  0.79345245    -0.80000
Cd1090     Cd  0.11151320  0.90563510  0.77163399     1.59700
Cd1091     Cd  0.14359083  0.96821399  0.79909159     1.59600
O1092       O  0.17852049  0.92293025  0.77379262    -0.80000
O1093       O  0.09070322  0.92353658  0.78801959    -1.90500
Cd1094     Cd  0.04406310  0.87209914  0.79887458     1.59900
O1095       O  0.19990398  0.96231235  0.79328861    -0.80000
O1096       O  0.47852597  0.86144116  0.79734069    -0.78600
C1097       C  0.11839074  0.53689786  0.79450159     0.83900
C1098       C  0.10875868  0.98354517  0.75544507     0.83600
O1099       O  0.99566028  0.92186410  0.78448354    -0.77600
C1100       C  0.06159138  0.80600106  0.78277695     0.84400
O1101       O  0.08030505  0.50212055  0.79666588    -0.77700
C1102       C  0.20796301  0.94398343  0.78301218     0.84500
C1103       C  0.08975472  0.91873055  0.82569712     0.84800
O1104       O  0.12394764  0.95182083  0.81972227    -0.80100
O1105       O  0.34016002  0.74210431  0.54855565    -0.77600
C1106       C  0.22681752  0.68020029  0.57752712     0.83400
O1107       O  0.18186076  0.63052512  0.53843514    -0.78700
O1108       O  0.15741409  0.74114160  0.55922998    -0.80200
O1109       O  0.28835662  0.84761826  0.53965897    -0.80000
O1110       O  0.35735588  0.80261272  0.53572946    -0.78600
Zn1111     Zn  0.27334683  0.70797933  0.55022257     1.55700
O1112       O  0.25646905  0.83076873  0.56055690    -0.80000
Cd1113     Cd  0.29188212  0.79207709  0.53418851     1.59700
Cd1114     Cd  0.19238296  0.69598254  0.53386585     1.59600
O1115       O  0.27771853  0.77892630  0.51388242    -0.80000
O1116       O  0.24518464  0.74053892  0.54499299    -1.90500
Cd1117     Cd  0.22435832  0.75836128  0.56139528     1.59900
O1118       O  0.21226784  0.71259904  0.51323956    -0.80000
O1119       O  0.21998553  0.71420766  0.57765883    -0.78600
C1120       C  0.21756577  0.62725650  0.53843297     0.83900
C1121       C  0.36827688  0.77598126  0.54148638     0.83600
O1122       O  0.24788027  0.67411947  0.56777984    -0.77600
C1123       C  0.27430856  0.85808520  0.55033338     0.84400
O1124       O  0.25563016  0.66206274  0.53627916    -0.77700
C1125       C  0.24651234  0.74577987  0.50730637     0.84500
C1126       C  0.12800854  0.72018834  0.54999560     0.84800
O1127       O  0.13608583  0.70193435  0.53969991    -0.80100
O1128       O  0.24940000  0.81761801  0.43174454    -0.77600
C1129       C  0.12893281  0.71567090  0.45814198     0.83400
O1130       O  0.31508608  0.86131108  0.46121616    -0.78700
O1131       O  0.21956742  0.71285404  0.48576409    -0.80200
O1132       O  0.24116429  0.66120930  0.43911852    -0.80000
O1133       O  0.27825923  0.77819545  0.42200598    -0.78600
Zn1134     Zn  0.22374581  0.78362255  0.44928857     1.55700
O1135       O  0.20899921  0.64434909  0.45998266    -0.80000
Cd1136     Cd  0.27327515  0.73365706  0.43826543     1.59700
Cd1137     Cd  0.30475471  0.79595717  0.46579334     1.59600
O1138       O  0.34012653  0.75079424  0.44057414    -0.80000
O1139       O  0.25211875  0.75134674  0.45462640    -1.90500
Cd1140     Cd  0.20547466  0.69982827  0.46545116     1.59900
O1141       O  0.36124345  0.79016541  0.46007465    -0.80000
O1142       O  0.14002493  0.68926572  0.46395841    -0.78600
C1143       C  0.27933336  0.86449925  0.46114154     0.83900
C1144       C  0.27107223  0.81198406  0.42208692     0.83600
O1145       O  0.15685628  0.74933130  0.45095843    -0.77600
C1146       C  0.22318775  0.63389563  0.44933958     0.84400
O1147       O  0.24121661  0.82962811  0.46318488    -0.77700
C1148       C  0.36943120  0.77182360  0.44982547     0.84500
C1149       C  0.25064886  0.74608929  0.49234213     0.84800
O1150       O  0.28479616  0.77936348  0.48640910    -0.80100
O1151       O  0.25260594  0.59182133  0.54881716    -0.77600
C1152       C  0.31532983  0.54040859  0.57763595     0.83400
O1153       O  0.36455683  0.54557382  0.53849243    -0.78700
O1154       O  0.25410381  0.91008612  0.55918994    -0.80200
O1155       O  0.14757202  0.93481013  0.53975829    -0.80000
O1156       O  0.19256752  0.54867908  0.53579749    -0.78600
Zn1157     Zn  0.28692496  0.55924022  0.55042811     1.55700
O1158       O  0.16446485  0.91949699  0.56061729    -0.80000
Cd1159     Cd  0.20308101  0.99376748  0.53430709     1.59700
Cd1160     Cd  0.29918880  0.99050325  0.53394446     1.59600
O1161       O  0.21599198  0.99249331  0.51400614    -0.80000
O1162       O  0.25461016  0.49858780  0.54511766    -1.90500
Cd1163     Cd  0.23694162  0.95980922  0.56148940     1.59900
O1164       O  0.28238324  0.99350009  0.51332962    -0.80000
O1165       O  0.28148654  0.99946863  0.57774576    -0.78600
C1166       C  0.36769610  0.58448905  0.53856990     0.83900
C1167       C  0.21894548  0.58612389  0.54163789     0.83600
O1168       O  0.32101623  0.56762471  0.56794791    -0.77600
C1169       C  0.13713596  0.91016273  0.55039701     0.84400
O1170       O  0.33280306  0.58768531  0.53649316    -0.77700
C1171       C  0.24906591  0.99435081  0.50741149     0.84500
C1172       C  0.27512254  0.90179296  0.54993580     0.84800
O1173       O  0.29345316  0.92829935  0.53968514    -0.80100
O1174       O  0.17573818  0.92473423  0.43201573    -0.77600
C1175       C  0.27801058  0.90571885  0.45804298     0.83400
O1176       O  0.13277813  0.94657623  0.46148724    -0.78700
O1177       O  0.28141425  0.49935230  0.48583949    -0.80200
O1178       O  0.33301912  0.57244290  0.43922313    -0.80000
O1179       O  0.21613008  0.49258735  0.42210163    -0.78600
Zn1180     Zn  0.21010073  0.93286399  0.44946679     1.55700
O1181       O  0.34983490  0.55709363  0.46008412    -0.80000
Cd1182     Cd  0.26056949  0.53213084  0.43835702     1.59700
Cd1183     Cd  0.19826465  0.00168810  0.46593035     1.59600
O1184       O  0.24342907  0.58184355  0.44057145    -0.80000
O1185       O  0.24273616  0.99347055  0.45475138    -1.90500
Cd1186     Cd  0.29423739  0.99811523  0.46552590     1.59900
O1187       O  0.20404764  0.56381957  0.46007196    -0.80000
O1188       O  0.30445582  0.94304186  0.46393583    -0.78600
C1189       C  0.12965834  0.90767003  0.46146241     0.83900
C1190       C  0.18185556  0.95191135  0.42227446     0.83600
O1191       O  0.24435802  0.90020364  0.45089319    -0.77600
C1192       C  0.36031481  0.58177486  0.44944923     0.84400
O1193       O  0.16460958  0.90456564  0.46351933    -0.77700
C1194       C  0.22238253  0.59020936  0.44979473     0.84500
C1195       C  0.24848355  0.49777507  0.49244473     0.84800
O1196       O  0.21527439  0.49886558  0.48653726    -0.80100
O1197       O  0.40320530  0.65517519  0.54881941    -0.77600
C1198       C  0.45508191  0.76971240  0.57749412     0.83400
O1199       O  0.44980221  0.81321177  0.53832533    -0.78700
O1200       O  0.08508921  0.83795422  0.55919234    -0.80200
O1201       O  0.06035169  0.70662316  0.53984368    -0.80000
O1202       O  0.44634368  0.63785217  0.53594495    -0.78600
Zn1203     Zn  0.43599055  0.72207495  0.55035002     1.55700
O1204       O  0.07581902  0.73909159  0.56065950    -0.80000
Cd1205     Cd  0.50136074  0.70315712  0.53437798     1.59700
Cd1206     Cd  0.50484001  0.80269162  0.53386698     1.59600
O1207       O  0.00248880  0.71695956  0.51405945    -0.80000
O1208       O  0.49665457  0.75008709  0.54508902    -1.90500
Cd1209     Cd  0.03540609  0.77116248  0.56146092     1.59900
O1210       O  0.00166151  0.78242900  0.51328618    -0.80000
O1211       O  0.99586940  0.77639149  0.57765020    -0.78600
C1212       C  0.41088761  0.77744971  0.53835180     0.83900
C1213       C  0.40885804  0.62702256  0.54172463     0.83600
O1214       O  0.42780127  0.74824878  0.56780990    -0.77600
C1215       C  0.08509809  0.72098002  0.55046130     0.84400
O1216       O  0.40778419  0.73940233  0.53629836    -0.77700
C1217       C  0.00060845  0.74808516  0.50742141     0.84500
C1218       C  0.09345418  0.86727762  0.54994386     0.84800
O1219       O  0.06706295  0.85912448  0.53965746    -0.80100
O1220       O  0.07001670  0.74465669  0.43201585    -0.77600
C1221       C  0.08853613  0.86508095  0.45831174     0.83400
O1222       O  0.04748030  0.67862824  0.46143061    -0.78700
O1223       O  0.49489174  0.77484356  0.48583921    -0.80200
O1224       O  0.42172875  0.75298166  0.43922931    -0.80000
O1225       O  0.50189806  0.71623583  0.42218871    -0.78600
Zn1226     Zn  0.06156125  0.77012895  0.44956863     1.55700
O1227       O  0.43695993  0.78529365  0.46006752    -0.80000
Cd1228     Cd  0.46211805  0.72090460  0.43841518     1.59700
Cd1229     Cd  0.49258202  0.68925983  0.46599139     1.59600
O1230       O  0.41244980  0.65399851  0.44064664    -0.80000
O1231       O  0.00082417  0.74196146  0.45479918    -1.90500
Cd1232     Cd  0.49599360  0.78880493  0.46553613     1.59900
O1233       O  0.43031599  0.63286622  0.46021609    -0.80000
O1234       O  0.05093597  0.85423363  0.46401905    -0.78600
C1235       C  0.08644594  0.71432060  0.46138201     0.83900
C1236       C  0.04282557  0.72329211  0.42230625     0.83600
O1237       O  0.09431730  0.83693082  0.45126553    -0.77600
C1238       C  0.41233766  0.77102090  0.44942177     0.84400
O1239       O  0.08971230  0.75239431  0.46352534    -0.77700
C1240       C  0.40399815  0.62468500  0.44991010     0.84500
C1241       C  0.49686135  0.74374547  0.49246566     0.84800
O1242       O  0.49586875  0.70944324  0.48659002    -0.80100
O1243       O  0.49174968  0.56951631  0.28440241    -0.77600
C1244       C  0.10635813  0.62153098  0.25564307     0.83400
O1245       O  0.14993327  0.61602047  0.29476303    -0.78700
O1246       O  0.17450741  0.75142471  0.27396071    -0.80200
O1247       O  0.04348514  0.72669236  0.29338027    -0.80000
O1248       O  0.47459491  0.61267222  0.29732974    -0.78600
Zn1249     Zn  0.05869269  0.60225214  0.28280715     1.55700
O1250       O  0.07553976  0.74183873  0.27250324    -0.80000
Cd1251     Cd  0.03997687  0.66765376  0.29888192     1.59700
Cd1252     Cd  0.13947041  0.67104628  0.29928363     1.59600
O1253       O  0.05379911  0.66842033  0.31920813    -0.80000
O1254       O  0.08677772  0.66288062  0.28811154    -1.90500
Cd1255     Cd  0.10776185  0.70164178  0.27173691     1.59900
O1256       O  0.11918630  0.66740143  0.31989316    -0.80000
O1257       O  0.11305951  0.66230963  0.25552780    -0.78600
C1258       C  0.11418168  0.57709333  0.29475572     0.83900
C1259       C  0.46366986  0.57518402  0.29153623     0.83600
O1260       O  0.08482773  0.59415100  0.26530276    -0.77600
C1261       C  0.05759866  0.75124948  0.28271394     0.84400
O1262       O  0.07610810  0.57394738  0.29680958    -0.77700
C1263       C  0.08483155  0.66620677  0.32580236     0.84500
C1264       C  0.20392007  0.75978626  0.28317796     0.84800
O1265       O  0.19585902  0.73337075  0.29345787    -0.80100
O1266       O  0.08125996  0.73399153  0.40132921    -0.77600
C1267       C  0.20174632  0.75265154  0.37487670     0.83400
O1268       O  0.01534185  0.71188827  0.37189328    -0.78700
O1269       O  0.11135288  0.65955089  0.34733927    -0.80200
O1270       O  0.08972205  0.58602902  0.39399023    -0.80000
O1271       O  0.05256716  0.66571174  0.41105963    -0.78600
Zn1272     Zn  0.10685744  0.72572150  0.38375722     1.55700
O1273       O  0.12169165  0.60115835  0.37309960    -0.80000
Cd1274     Cd  0.05747813  0.62620531  0.39481202     1.59700
Cd1275     Cd  0.02583230  0.65694241  0.36730115     1.59600
O1276       O  0.49062689  0.57642610  0.39257059    -0.80000
O1277       O  0.07855229  0.66505826  0.37845368    -1.90500
Cd1278     Cd  0.12526389  0.66022611  0.36764714     1.59900
O1279       O  0.46940937  0.59457459  0.37306638    -0.80000
O1280       O  0.19074537  0.71505718  0.36914516    -0.78600
C1281       C  0.05105430  0.75084492  0.37192348     0.83900
C1282       C  0.05966823  0.70664262  0.41098667     0.83600
O1283       O  0.17374993  0.75844604  0.38200891    -0.77600
C1284       C  0.10760967  0.57661038  0.38376590     0.84400
O1285       O  0.08917115  0.75410114  0.36985616    -0.77700
C1286       C  0.46126529  0.56810149  0.38333365     0.84500
C1287       C  0.08035820  0.66186390  0.34075708     0.84800
O1288       O  0.04604606  0.66072211  0.34667776    -0.80100
O1289       O  0.07903749  0.00648851  0.28448572    -0.77600
C1290       C  0.01711782  0.89330068  0.25553941     0.83400
O1291       O  0.46717028  0.84819799  0.29457679    -0.78700
O1292       O  0.07785269  0.82354135  0.27390196    -0.80200
O1293       O  0.18424701  0.95456446  0.29350021    -0.80000
O1294       O  0.13914189  0.52344184  0.29747769    -0.78600
Zn1295     Zn  0.04485379  0.93968718  0.28284077     1.55700
O1296       O  0.16751837  0.92270429  0.27259697    -0.80000
Cd1297     Cd  0.12863259  0.95795641  0.29895313     1.59700
Cd1298     Cd  0.03250231  0.85849528  0.29916196     1.59600
O1299       O  0.11536574  0.94334757  0.31923117    -0.80000
O1300       O  0.07722923  0.91135812  0.28808978    -1.90500
Cd1301     Cd  0.09509418  0.89051410  0.27170622     1.59900
O1302       O  0.04904206  0.87788201  0.31979516    -0.80000
O1303       O  0.05101900  0.88628892  0.25542092    -0.78600
C1304       C  0.46401029  0.88395775  0.29457446     0.83900
C1305       C  0.11274119  0.53449596  0.29163248     0.83600
O1306       O  0.01109311  0.91439295  0.26528463    -0.77600
C1307       C  0.19478433  0.94055335  0.28283314     0.84400
O1308       O  0.49885345  0.92198190  0.29674673    -0.77700
C1309       C  0.08225238  0.91195615  0.32576888     0.84500
C1310       C  0.05675307  0.79412169  0.28312338     0.84800
O1311       O  0.03832466  0.80217127  0.29337200    -0.80100
O1312       O  0.15434302  0.91407279  0.40122472    -0.77600
C1313       C  0.05238412  0.79339154  0.37503325     0.83400
O1314       O  0.19786431  0.97947656  0.37184743    -0.78700
O1315       O  0.04957355  0.88425979  0.34728649    -0.80200
O1316       O  0.49759898  0.90532802  0.39389322    -0.80000
O1317       O  0.11433169  0.94206598  0.41108834    -0.78600
Zn1318     Zn  0.12025169  0.88828157  0.38372992     1.55700
O1319       O  0.48085845  0.87322092  0.37302209    -0.80000
Cd1320     Cd  0.07003469  0.93742849  0.39480457     1.59700
Cd1321     Cd  0.13253308  0.96925688  0.36731753     1.59600
O1322       O  0.08728145  0.50433249  0.39256563    -0.80000
O1323       O  0.08785206  0.91650883  0.37842936    -1.90500
Cd1324     Cd  0.03646050  0.86982541  0.36758204     1.59900
O1325       O  0.12683226  0.52565963  0.37309869    -0.80000
O1326       O  0.02608599  0.80442422  0.36911141    -0.78600
C1327       C  0.20094873  0.94367331  0.37186805     0.83900
C1328       C  0.14837051  0.93526653  0.41095223     0.83600
O1329       O  0.08596632  0.82141240  0.38222163    -0.77600
C1330       C  0.47033688  0.88737532  0.38365954     0.84400
O1331       O  0.16602367  0.90564799  0.36976657    -0.77700
C1332       C  0.10841520  0.53373333  0.38334618     0.84500
C1333       C  0.08264988  0.91564956  0.34073767     0.84800
O1334       O  0.11585623  0.94975455  0.34670125    -0.80100
O1335       O  0.42866503  0.91927495  0.28430992    -0.77600
C1336       C  0.37722112  0.98219287  0.25556271     0.83400
O1337       O  0.38219013  0.53083573  0.29483437    -0.78700
O1338       O  0.24693092  0.92060027  0.27396236    -0.80200
O1339       O  0.27159365  0.81382137  0.29329932    -0.80000
O1340       O  0.38539792  0.85877830  0.29714836    -0.78600
Zn1341     Zn  0.39601002  0.95351580  0.28274516     1.55700
O1342       O  0.25607765  0.83087956  0.27249714    -0.80000
Cd1343     Cd  0.33053667  0.86926690  0.29872115     1.59700
Cd1344     Cd  0.32712575  0.96528907  0.29930336     1.59600
O1345       O  0.32922557  0.88166651  0.31903785    -0.80000
O1346       O  0.33532394  0.92098010  0.28802147    -1.90500
Cd1347     Cd  0.29660259  0.90342006  0.27163536     1.59900
O1348       O  0.33001651  0.94792640  0.31988755    -0.80000
O1349       O  0.33632640  0.94824075  0.25541422    -0.78600
C1350       C  0.42112934  0.53401412  0.29471840     0.83900
C1351       C  0.42291427  0.88540679  0.29138868     0.83600
O1352       O  0.40439570  0.98785628  0.26526466    -0.77600
C1353       C  0.24681991  0.80347231  0.28269547     0.84400
O1354       O  0.42433191  0.49911931  0.29676050    -0.77700
C1355       C  0.33093022  0.91450700  0.32571743     0.84500
C1356       C  0.23850956  0.94140309  0.28325276     0.84800
O1357       O  0.26488780  0.95952945  0.29354543    -0.80100
O1358       O  0.26070455  0.83974399  0.40106060    -0.77600
C1359       C  0.24206106  0.94219124  0.37500187     0.83400
O1360       O  0.28320653  0.79701586  0.37153292    -0.78700
O1361       O  0.33590533  0.94631196  0.34736533    -0.80200
O1362       O  0.40896477  0.99695474  0.39396272    -0.80000
O1363       O  0.32867566  0.87967023  0.41095323    -0.78600
Zn1364     Zn  0.26906802  0.87409646  0.38357780     1.55700
O1365       O  0.39360461  0.51411692  0.37315665    -0.80000
Cd1366     Cd  0.36841703  0.92444008  0.39475955     1.59700
Cd1367     Cd  0.33814315  0.86266243  0.36707396     1.59600
O1368       O  0.41809655  0.90726902  0.39248741    -0.80000
O1369       O  0.32979267  0.90687747  0.37835597    -1.90500
Cd1370     Cd  0.33459596  0.95866617  0.36769365     1.59900
O1371       O  0.40037779  0.86851493  0.37287489    -0.80000
O1372       O  0.27963488  0.96903144  0.36930122    -0.78600
C1373       C  0.24424216  0.79376957  0.37161782     0.83900
C1374       C  0.28786894  0.84559007  0.41078472     0.83600
O1375       O  0.23630398  0.90818122  0.38200420    -0.77600
C1376       C  0.41832215  0.52441319  0.38377607     0.84400
O1377       O  0.24101113  0.82861497  0.36951432    -0.77700
C1378       C  0.42662962  0.88655019  0.38319859     0.84500
C1379       C  0.33426895  0.91351034  0.34067860     0.84800
O1380       O  0.33525207  0.88011178  0.34649988    -0.80100
O1381       O  0.42188188  0.92889236  0.21530925    -0.77600
C1382       C  0.48375885  0.87685276  0.24419637     0.83400
O1383       O  0.03346169  0.88208376  0.20520773    -0.78700
O1384       O  0.42227686  0.74684333  0.22592956    -0.80200
O1385       O  0.31630400  0.77168140  0.20627123    -0.80000
O1386       O  0.36156140  0.88579334  0.20238158    -0.78600
Zn1387     Zn  0.45599724  0.89609547  0.21693898     1.55700
O1388       O  0.33292598  0.75675672  0.22722173    -0.80000
Cd1389     Cd  0.37197730  0.83077939  0.20082937     1.59700
Cd1390     Cd  0.46802772  0.82720193  0.20064095     1.59600
O1391       O  0.38563706  0.83017932  0.18053261    -0.80000
O1392       O  0.42334158  0.83545226  0.21168988    -1.90500
Cd1393     Cd  0.40530093  0.79672749  0.22806908     1.59900
O1394       O  0.45189432  0.83085348  0.18000877    -0.80000
O1395       O  0.44953219  0.83616789  0.24433001    -0.78600
C1396       C  0.03673911  0.92105160  0.20511345     0.83900
C1397       C  0.38812952  0.92326225  0.20818642     0.83600
O1398       O  0.48996372  0.90413178  0.23447457    -0.77600
C1399       C  0.30571594  0.74723945  0.21696941     0.84400
O1400       O  0.00189340  0.92427746  0.20297203    -0.77700
C1401       C  0.41895874  0.83222724  0.17402042     0.84500
C1402       C  0.44348947  0.73850360  0.21675486     0.84800
O1403       O  0.46198884  0.76493402  0.20649329    -0.80100
O1404       O  0.34870624  0.76447038  0.09852258    -0.77600
C1405       C  0.45052471  0.74580821  0.12494189     0.83400
O1406       O  0.30479465  0.78634271  0.12783925    -0.78700
O1407       O  0.45261657  0.83884457  0.15255937    -0.80200
O1408       O  0.00517063  0.91215540  0.10584479    -0.80000
O1409       O  0.38843910  0.83268084  0.08876461    -0.78600
Zn1410     Zn  0.38258906  0.77271102  0.11607752     1.55700
O1411       O  0.02183841  0.89720801  0.12678798    -0.80000
Cd1412     Cd  0.43277493  0.87215799  0.10501836     1.59700
Cd1413     Cd  0.37007666  0.84138449  0.13243647     1.59600
O1414       O  0.41580112  0.92202128  0.10724387    -0.80000
O1415       O  0.41488067  0.83334534  0.12137918    -1.90500
Cd1416     Cd  0.46625439  0.83816686  0.13226582     1.59900
O1417       O  0.37602343  0.90370099  0.12666914    -0.80000
O1418       O  0.47685669  0.78326281  0.13078822    -0.78600
C1419       C  0.30163810  0.74742012  0.12788718     0.83900
C1420       C  0.35455481  0.79179259  0.08884927     0.83600
O1421       O  0.41691296  0.74012097  0.11773631    -0.77600
C1422       C  0.03241189  0.92163365  0.11608875     0.84400
O1423       O  0.33654055  0.74425018  0.12998223    -0.77700
C1424       C  0.39459393  0.93027660  0.11644195     0.84500
C1425       C  0.41918193  0.83655988  0.15906545     0.84800
O1426       O  0.38613911  0.83770327  0.15307000    -0.80100
O1427       O  0.07223118  0.99152130  0.21545590    -0.77600
C1428       C  0.12339682  0.60505714  0.24433018     0.83400
O1429       O  0.11841359  0.64976539  0.20518915    -0.78700
O1430       O  0.25378743  0.67503446  0.22583195    -0.80200
O1431       O  0.22920742  0.54350228  0.20641437    -0.80000
O1432       O  0.11528373  0.97470962  0.20236743    -0.78600
Zn1433     Zn  0.10475927  0.55832115  0.21708783     1.55700
O1434       O  0.24472782  0.57604732  0.22722302    -0.80000
Cd1435     Cd  0.17029487  0.54015123  0.20093253     1.59700
Cd1436     Cd  0.17348263  0.63952403  0.20060292     1.59600
O1437       O  0.17209818  0.55470800  0.18064229    -0.80000
O1438       O  0.16544019  0.58683003  0.21175719    -1.90500
Cd1439     Cd  0.20426062  0.60804243  0.22811732     1.59900
O1440       O  0.17095172  0.62002199  0.17998923    -0.80000
O1441       O  0.16446670  0.61250295  0.24440217    -0.78600
C1442       C  0.07949612  0.61401616  0.20534158     0.83900
C1443       C  0.07789093  0.96359253  0.20825735     0.83600
O1444       O  0.09620342  0.58351756  0.23464559    -0.77600
C1445       C  0.25396337  0.55788548  0.21702736     0.84400
O1446       O  0.07620824  0.57590467  0.20323734    -0.77700
C1447       C  0.17043981  0.58605055  0.17405701     0.84500
C1448       C  0.26204027  0.70432915  0.21657465     0.84800
O1449       O  0.23555516  0.69609280  0.20631861    -0.80100
O1450       O  0.24196656  0.58433680  0.09859421    -0.77600
C1451       C  0.26047810  0.70483591  0.12479913     0.83400
O1452       O  0.21987057  0.51880463  0.12803193    -0.78700
O1453       O  0.16623149  0.61390199  0.15249513    -0.80200
O1454       O  0.09368840  0.59284549  0.10591894    -0.80000
O1455       O  0.17394006  0.55611375  0.08873045    -0.78600
Zn1456     Zn  0.23348895  0.60999341  0.11609188     1.55700
O1457       O  0.10923230  0.62525800  0.12674507    -0.80000
Cd1458     Cd  0.13411209  0.56075226  0.10499221     1.59700
Cd1459     Cd  0.16468158  0.52899569  0.13253226     1.59600
O1460       O  0.08444369  0.99382640  0.10724365    -0.80000
O1461       O  0.17281133  0.58171679  0.12138041    -1.90500
Cd1462     Cd  0.16807605  0.62844663  0.13220513     1.59900
O1463       O  0.10261478  0.97258097  0.12673716    -0.80000
O1464       O  0.22316360  0.69378556  0.13072905    -0.78600
C1465       C  0.25875132  0.55461474  0.12796226     0.83900
C1466       C  0.21484425  0.56307324  0.08886507     0.83600
O1467       O  0.26605456  0.67683856  0.11760546    -0.77600
C1468       C  0.08446920  0.61096373  0.11613287     0.84400
O1469       O  0.26185508  0.59263955  0.13006769    -0.77700
C1470       C  0.07613817  0.96447204  0.11648495     0.84500
C1471       C  0.16769040  0.58245780  0.15908180     0.84800
O1472       O  0.16703590  0.54841566  0.15314982    -0.80100
O1473       O  0.50886199  0.57887193  0.21562161    -0.77600
C1474       C  0.39416029  0.51591182  0.24427834     0.83400
O1475       O  0.35102131  0.96767025  0.20491129    -0.78700
O1476       O  0.32601320  0.57774966  0.22588997    -0.80200
O1477       O  0.45736599  0.68459320  0.20665331    -0.80000
O1478       O  0.02632112  0.63955964  0.20283963    -0.78600
Zn1479     Zn  0.44196963  0.54475194  0.21713843     1.55700
O1480       O  0.42462164  0.66741412  0.22743012    -0.80000
Cd1481     Cd  0.46106533  0.62924285  0.20119905     1.59700
Cd1482     Cd  0.36167661  0.53331934  0.20047309     1.59600
O1483       O  0.44789047  0.61702404  0.18084020    -0.80000
O1484       O  0.41401998  0.57744402  0.21183684    -1.90500
Cd1485     Cd  0.39278671  0.59491475  0.22823034     1.59900
O1486       O  0.38246680  0.55076991  0.17990197    -0.80000
O1487       O  0.38744667  0.55000875  0.24443950    -0.78600
C1488       C  0.38676799  0.96446752  0.20504263     0.83900
C1489       C  0.03705157  0.61274238  0.20855796     0.83600
O1490       O  0.41566152  0.51018559  0.23458408    -0.77600
C1491       C  0.44279442  0.69485767  0.21724491     0.84400
O1492       O  0.42487630  0.99938649  0.20306054    -0.77700
C1493       C  0.41696854  0.58415194  0.17411592     0.84500
C1494       C  0.29686062  0.55708719  0.21657629     0.84800
O1495       O  0.30518834  0.53913576  0.20624723    -0.80100
O1496       O  0.42249991  0.65854379  0.09865378    -0.77600
C1497       C  0.30132821  0.55609416  0.12478389     0.83400
O1498       O  0.48759448  0.70138496  0.12828432    -0.78700
O1499       O  0.39080129  0.55214198  0.15244563    -0.80200
O1500       O  0.41353114  0.50145576  0.10583277    -0.80000
O1501       O  0.45066439  0.61863228  0.08882377    -0.78600
Zn1502     Zn  0.39642168  0.62421791  0.11615632     1.55700
O1503       O  0.38105472  0.98431011  0.12664464    -0.80000
Cd1504     Cd  0.44552523  0.57394283  0.10505038     1.59700
Cd1505     Cd  0.47692028  0.63573857  0.13276688     1.59600
O1506       O  0.01232677  0.59107654  0.10732951    -0.80000
O1507       O  0.42443659  0.59154815  0.12144707    -1.90500
Cd1508     Cd  0.37745179  0.53974363  0.13210392     1.59900
O1509       O  0.03335394  0.62982995  0.12694601    -0.80000
O1510       O  0.31211599  0.52928339  0.13047876    -0.78600
C1511       C  0.45187507  0.70463797  0.12815570     0.83900
C1512       C  0.44392283  0.65270403  0.08895737     0.83600
O1513       O  0.32952473  0.59007869  0.11775962    -0.77600
C1514       C  0.39542157  0.97399640  0.11601573     0.84400
O1515       O  0.41376257  0.66977806  0.13019049    -0.77700
C1516       C  0.04158043  0.61180086  0.11661408     0.84500
C1517       C  0.42174891  0.58503635  0.15915721     0.84800
O1518       O  0.45624074  0.61840436  0.15335959    -0.80100
O1519       O  0.32702614  0.75382824  0.06781623    -0.77600
C1520       C  0.22519431  0.63342671  0.04151967     0.83400
O1521       O  0.37075561  0.81967324  0.03840742    -0.78700
O1522       O  0.22235742  0.72409288  0.01384955    -0.80200
O1523       O  0.17061594  0.74546020  0.06052419    -0.80000
O1524       O  0.28723905  0.78216954  0.07762313    -0.78600
Zn1525     Zn  0.29313820  0.72830496  0.05027243     1.55700
O1526       O  0.15370256  0.71339474  0.03964849    -0.80000
Cd1527     Cd  0.24302012  0.77757485  0.06135117     1.59700
Cd1528     Cd  0.30538522  0.80931578  0.03382822     1.59600
O1529       O  0.26029505  0.84448065  0.05913251    -0.80000
O1530       O  0.26076574  0.75659130  0.04496971    -1.90500
Cd1531     Cd  0.20924318  0.70989217  0.03415817     1.59900
O1532       O  0.29963414  0.86575421  0.03962612    -0.80000
O1533       O  0.19874663  0.64442526  0.03567845    -0.78600
C1534       C  0.37395778  0.78393515  0.03846535     0.83900
C1535       C  0.32112848  0.77515181  0.07752070     0.83600
O1536       O  0.25889196  0.66147037  0.04866492    -0.77600
C1537       C  0.14326280  0.72751276  0.05031358     0.84400
O1538       O  0.33911374  0.74585129  0.03635897    -0.77700
C1539       C  0.28134795  0.87386988  0.04990511     0.84500
C1540       C  0.25552471  0.75526889  0.00727092     0.84800
O1541       O  0.28875745  0.78946151  0.01320365    -0.80100
O1542       O  0.25174387  0.84475600  0.95071147    -0.77600
C1543       C  0.18893700  0.73030176  0.92208624     0.83400
O1544       O  0.13986949  0.68685689  0.96124838    -0.78700
O1545       O  0.25052814  0.66187870  0.94051489    -0.80200
O1546       O  0.35681057  0.79297942  0.95992907    -0.80000
O1547       O  0.31154792  0.86173040  0.96386098    -0.78600
Zn1548     Zn  0.21742681  0.77784894  0.94923908     1.55700
O1549       O  0.34002813  0.76081851  0.93906444    -0.80000
Cd1550     Cd  0.30126517  0.79640749  0.96539980     1.59700
Cd1551     Cd  0.20523778  0.69707835  0.96576214     1.59600
O1552       O  0.28830945  0.78233805  0.98571888    -0.80000
O1553       O  0.24982626  0.74967282  0.95458590    -1.90500
Cd1554     Cd  0.26758057  0.72865563  0.93821332     1.59900
O1555       O  0.22193621  0.71697094  0.98637678    -0.80000
O1556       O  0.22298494  0.72351939  0.92195799    -0.78600
C1557       C  0.13680751  0.72267837  0.96120825     0.83900
C1558       C  0.28523801  0.87274144  0.95793913     0.83600
O1559       O  0.18311461  0.75174536  0.93177274    -0.77600
C1560       C  0.36730804  0.77879588  0.94929271     0.84400
O1561       O  0.17178547  0.76072304  0.96323297    -0.77700
C1562       C  0.25516790  0.75116999  0.99230459     0.84500
C1563       C  0.22943861  0.63253548  0.94974873     0.84800
O1564       O  0.21102081  0.64064688  0.95999388    -0.80100
O1565       O  0.43363949  0.68052490  0.06793526    -0.77600
C1566       C  0.41510827  0.78258129  0.04165801     0.83400
O1567       O  0.45585652  0.63719369  0.03842461    -0.78700
O1568       O  0.00881596  0.78592492  0.01402335    -0.80200
O1569       O  0.08194586  0.83721068  0.06062532    -0.80000
O1570       O  0.00175021  0.72017124  0.07775858    -0.78600
Zn1571     Zn  0.44206631  0.71465465  0.05041291     1.55700
O1572       O  0.06652945  0.85417171  0.03979166    -0.80000
Cd1573     Cd  0.04147250  0.76472561  0.06150193     1.59700
Cd1574     Cd  0.01087535  0.70263580  0.03390566     1.59600
O1575       O  0.09115295  0.74751708  0.05919829    -0.80000
O1576       O  0.00273295  0.74709777  0.04511911    -1.90500
Cd1577     Cd  0.00754765  0.79867792  0.03433821     1.59900
O1578       O  0.07310092  0.70843611  0.03964397    -0.80000
O1579       O  0.45258638  0.80909732  0.03585486    -0.78600
C1580       C  0.41692700  0.63403041  0.03850717     0.83900
C1581       C  0.46082506  0.68628503  0.07764219     0.83600
O1582       O  0.40942179  0.74886615  0.04880199    -0.77600
C1583       C  0.09125308  0.86456605  0.05041359     0.84400
O1584       O  0.41372299  0.66891380  0.03644054    -0.77700
C1585       C  0.09953430  0.72665102  0.04991715     0.84500
C1586       C  0.00699168  0.75290862  0.00740655     0.84800
O1587       O  0.00788005  0.71958291  0.01330292    -0.80100
O1588       O  0.10131622  0.75809466  0.95110896    -0.77600
C1589       C  0.04962724  0.82009140  0.92227359     0.83400
O1590       O  0.05437349  0.86932541  0.96144207    -0.78700
O1591       O  0.41948996  0.75868714  0.94053041    -0.80200
O1592       O  0.44412468  0.65213448  0.96009033    -0.80000
O1593       O  0.05816425  0.69744103  0.96390513    -0.78600
Zn1594     Zn  0.06851801  0.79214972  0.94954725     1.55700
O1595       O  0.42886620  0.66901788  0.93922847    -0.80000
Cd1596     Cd  0.00314325  0.70776956  0.96551448     1.59700
Cd1597     Cd  0.99946068  0.80374622  0.96593630     1.59600
O1598       O  0.50198903  0.72065013  0.98582425    -0.80000
O1599       O  0.00782040  0.75933936  0.95476140    -1.90500
Cd1600     Cd  0.46920919  0.74148777  0.93835475     1.59900
O1601       O  0.50239224  0.78674736  0.98654571    -0.80000
O1602       O  0.50892839  0.78584239  0.92210170    -0.78600
C1603       C  0.09333863  0.87257943  0.96143633     0.83900
C1604       C  0.09565116  0.72416758  0.95813743     0.83600
O1605       O  0.07674991  0.82629790  0.93204171    -0.77600
C1606       C  0.41948822  0.64167676  0.94944529     0.84400
O1607       O  0.09655450  0.83774567  0.96358565    -0.77700
C1608       C  0.50354308  0.75354903  0.99244032     0.84500
C1609       C  0.41100304  0.77960540  0.94976745     0.84800
O1610       O  0.43727941  0.79782075  0.96007433    -0.80100
O1611       O  0.25320750  0.57383312  0.06786156    -0.77600
C1612       C  0.37439039  0.59286920  0.04166279     0.83400
O1613       O  0.18811670  0.55192175  0.03831698    -0.78700
O1614       O  0.28432637  0.99933148  0.01396048    -0.80200
O1615       O  0.26257210  0.92609838  0.06057888    -0.80000
O1616       O  0.22518819  0.00574828  0.07766715    -0.78600
Zn1617     Zn  0.27934101  0.56574826  0.05035895     1.55700
O1618       O  0.29481643  0.94146443  0.03973005    -0.80000
Cd1619     Cd  0.23036474  0.96635300  0.06141756     1.59700
Cd1620     Cd  0.19865264  0.49689518  0.03383535     1.59600
O1621       O  0.16356384  0.91659190  0.05917271    -0.80000
O1622       O  0.25131785  0.50512707  0.04504137    -1.90500
Cd1623     Cd  0.29820220  0.50043412  0.03428221     1.59900
O1624       O  0.14226312  0.93464747  0.03966600    -0.80000
O1625       O  0.36351536  0.55542702  0.03585061    -0.78600
C1626       C  0.22384101  0.59086981  0.03838542     0.83900
C1627       C  0.23181697  0.54651229  0.07754559     0.83600
O1628       O  0.34627197  0.59850036  0.04878726    -0.77600
C1629       C  0.28058662  0.91678373  0.05036324     0.84400
O1630       O  0.26195954  0.59408558  0.03636305    -0.77700
C1631       C  0.13417071  0.90823875  0.04994561     0.84500
C1632       C  0.25314388  0.00116670  0.00733766     0.84800
O1633       O  0.21880258  0.00006656  0.01322645    -0.80100
O1634       O  0.16378884  0.90786023  0.95103705    -0.77600
C1635       C  0.27786797  0.95939240  0.92208592     0.83400
O1636       O  0.32215766  0.95415338  0.96125870    -0.78700
O1637       O  0.34728282  0.58964804  0.94061049    -0.80200
O1638       O  0.21601956  0.56505063  0.95997799    -0.80000
O1639       O  0.14694074  0.95122115  0.96396569    -0.78600
Zn1640     Zn  0.23065725  0.94044047  0.94929940     1.55700
O1641       O  0.24830615  0.58031214  0.93913258    -0.80000
Cd1642     Cd  0.21243871  0.50602473  0.96544859     1.59700
Cd1643     Cd  0.31178343  0.50916848  0.96585928     1.59600
O1644       O  0.22639919  0.50707836  0.98576087    -0.80000
O1645       O  0.25915164  0.50109831  0.95466074    -1.90500
Cd1646     Cd  0.28041762  0.53998448  0.93830986     1.59900
O1647       O  0.29164438  0.50580186  0.98647505    -0.80000
O1648       O  0.28533687  0.50045731  0.92204782    -0.78600
C1649       C  0.28644505  0.91519487  0.96110448     0.83900
C1650       C  0.13585249  0.91367014  0.95819185     0.83600
O1651       O  0.25603605  0.93203889  0.93171490    -0.77600
C1652       C  0.23026799  0.58966817  0.94933280     0.84400
O1653       O  0.24826871  0.91184168  0.96313918    -0.77700
C1654       C  0.25743155  0.50493778  0.99237342     0.84500
C1655       C  0.37657045  0.59796650  0.94987170     0.84800
O1656       O  0.36834215  0.57148835  0.96013978    -0.80100
O1657       O  0.91159455  0.17173712  0.61758125    -0.77600
C1658       C  0.84894004  0.05731000  0.58893850     0.83400
O1659       O  0.80051491  0.01390083  0.62830467    -0.78700
O1660       O  0.91069940  0.48912954  0.60725881    -0.80200
O1661       O  0.51754760  0.12048218  0.62655135    -0.80000
O1662       O  0.97232354  0.18930459  0.63035878    -0.78600
Zn1663     Zn  0.87753515  0.10486591  0.61610592     1.55700
O1664       O  0.00038346  0.08781652  0.60576717    -0.80000
Cd1665     Cd  0.96211370  0.12407954  0.63200710     1.59700
Cd1666     Cd  0.86620293  0.02457371  0.63272600     1.59600
O1667       O  0.94993201  0.11074311  0.65235193    -0.80000
O1668       O  0.91032462  0.07699810  0.62138046    -1.90500
Cd1669     Cd  0.92789252  0.05592610  0.60497672     1.59900
O1670       O  0.88378401  0.04519692  0.65330375    -0.80000
O1671       O  0.88315696  0.05078973  0.58876145    -0.78600
C1672       C  0.79733371  0.04965425  0.62818506     0.83900
C1673       C  0.94550020  0.19999257  0.62461892     0.83600
O1674       O  0.84300284  0.07856081  0.59866338    -0.77600
C1675       C  0.52783537  0.10597161  0.61595036     0.84400
O1676       O  0.83225499  0.08771890  0.63021339    -0.77700
C1677       C  0.91718408  0.07970082  0.65908303     0.84500
C1678       C  0.88998978  0.45990339  0.61655059     0.84800
O1679       O  0.87201747  0.46815398  0.62688918    -0.80100
O1680       O  0.99223411  0.08526317  0.73451571    -0.77600
C1681       C  0.88969359  0.46398180  0.70848042     0.83400
O1682       O  0.53494327  0.14989609  0.70482528    -0.78700
O1683       O  0.88543935  0.05343552  0.68077522    -0.80200
O1684       O  0.83522533  0.07661635  0.72736102    -0.80000
O1685       O  0.95264111  0.11381106  0.74432935    -0.78600
Zn1686     Zn  0.95768472  0.05899870  0.71707777     1.55700
O1687       O  0.81798503  0.04371295  0.70660878    -0.80000
Cd1688     Cd  0.90773702  0.10845863  0.72813162     1.59700
Cd1689     Cd  0.96936215  0.13943168  0.70039162     1.59600
O1690       O  0.92497838  0.17523230  0.72576427    -0.80000
O1691       O  0.92515567  0.08711296  0.71175511    -1.90500
Cd1692     Cd  0.87334340  0.04009481  0.70112306     1.59900
O1693       O  0.96372038  0.19602284  0.70614489    -0.80000
O1694       O  0.86303065  0.47482856  0.70271533    -0.78600
C1695       C  0.53803704  0.11409377  0.70498733     0.83900
C1696       C  0.98662585  0.10692220  0.74418418     0.83600
O1697       O  0.92348497  0.99208754  0.71558705    -0.77600
C1698       C  0.80773115  0.05832054  0.71719297     0.84400
O1699       O  0.50306416  0.07601835  0.70301195    -0.77700
C1700       C  0.94571926  0.20437303  0.71645505     0.84500
C1701       C  0.91827340  0.08436644  0.67404371     0.84800
O1702       O  0.95177426  0.11877486  0.67982288    -0.80100
O1703       O  0.82444873  0.23544270  0.61754125    -0.77600
C1704       C  0.93842981  0.28667711  0.58878070     0.83400
O1705       O  0.98264927  0.28140756  0.62783081    -0.78700
O1706       O  0.50785072  0.41705585  0.60721003    -0.80200
O1707       O  0.87653400  0.39229271  0.62669435    -0.80000
O1708       O  0.80776079  0.27839512  0.63072377    -0.78600
Zn1709     Zn  0.89131767  0.26791654  0.61596833     1.55700
O1710       O  0.90881325  0.40774923  0.60584627    -0.80000
Cd1711     Cd  0.87320539  0.33339226  0.63215822     1.59700
Cd1712     Cd  0.97256901  0.33657490  0.63238732     1.59600
O1713       O  0.88791368  0.33512696  0.65243933    -0.80000
O1714       O  0.91980660  0.32857227  0.62129002    -1.90500
Cd1715     Cd  0.94092467  0.36739040  0.60493299     1.59900
O1716       O  0.95326741  0.33403078  0.65300431    -0.80000
O1717       O  0.94569081  0.32767677  0.58868072    -0.78600
C1718       C  0.94685862  0.24251785  0.62775805     0.83900
C1719       C  0.79657098  0.24106586  0.62478343     0.83600
O1720       O  0.91682056  0.25945617  0.59845324    -0.77600
C1721       C  0.89077881  0.41701128  0.61607169     0.84400
O1722       O  0.90877654  0.23933185  0.62985034    -0.77700
C1723       C  0.91933402  0.33345850  0.65897948     0.84500
C1724       C  0.53722243  0.42523694  0.61643596     0.84800
O1725       O  0.52909242  0.39864406  0.62665599    -0.80100
O1726       O  0.91898093  0.40479293  0.73451103    -0.77600
C1727       C  0.53891674  0.42305110  0.70805028     0.83400
O1728       O  0.85262250  0.38259218  0.70518784    -0.78700
O1729       O  0.94731957  0.32890285  0.68048177    -0.80200
O1730       O  0.92689669  0.25658292  0.72710215    -0.80000
O1731       O  0.89005021  0.33654086  0.74426743    -0.78600
Zn1732     Zn  0.94418654  0.39626921  0.71693799     1.55700
O1733       O  0.95897591  0.27182500  0.70622698    -0.80000
Cd1734     Cd  0.89461852  0.29677132  0.72799971     1.59700
Cd1735     Cd  0.86276723  0.32748261  0.70057173     1.59600
O1736       O  0.82765874  0.24702098  0.72575935    -0.80000
O1737       O  0.91564519  0.33556292  0.71163415    -1.90500
Cd1738     Cd  0.96220125  0.33068772  0.70074735     1.59900
O1739       O  0.80629623  0.26537320  0.70632582    -0.80000
O1740       O  0.52770255  0.38565941  0.70214665    -0.78600
C1741       C  0.88837323  0.42151656  0.70526382     0.83900
C1742       C  0.89742525  0.37758006  0.74419171     0.83600
O1743       O  0.51103197  0.42876629  0.71525855    -0.77600
C1744       C  0.94487787  0.24724198  0.71688102     0.84400
O1745       O  0.92645862  0.42478653  0.70310605    -0.77700
C1746       C  0.79822389  0.23880372  0.71654948     0.84500
C1747       C  0.91589016  0.33059185  0.67395226     0.84800
O1748       O  0.88198176  0.33004767  0.67993736    -0.80100
O1749       O  0.76201018  0.08503984  0.61793450    -0.77600
C1750       C  0.71020059  0.14682506  0.58886800     0.83400
O1751       O  0.71505354  0.19658679  0.62786235    -0.78700
O1752       O  0.57992801  0.08570035  0.60718992    -0.80200
O1753       O  0.60454837  0.47943229  0.62675249    -0.80000
O1754       O  0.71854602  0.02431782  0.63066028    -0.78600
Zn1755     Zn  0.72920249  0.11908664  0.61616886     1.55700
O1756       O  0.58963270  0.49621540  0.60582376    -0.80000
Cd1757     Cd  0.66368899  0.03498385  0.63219967     1.59700
Cd1758     Cd  0.66027329  0.13112300  0.63246810     1.59600
O1759       O  0.66325540  0.04858098  0.65249851    -0.80000
O1760       O  0.66849282  0.08648171  0.62137963    -1.90500
Cd1761     Cd  0.62974265  0.06860410  0.60500471     1.59900
O1762       O  0.66420114  0.11495962  0.65308187    -0.80000
O1763       O  0.66937511  0.11281938  0.58875315    -0.78600
C1764       C  0.75404604  0.19990862  0.62794177     0.83900
C1765       C  0.75619558  0.05108897  0.62498246     0.83600
O1766       O  0.73744464  0.15287269  0.59858732    -0.77600
C1767       C  0.58010897  0.46892964  0.61605654     0.84400
O1768       O  0.75732038  0.16510876  0.63010293    -0.77700
C1769       C  0.66553915  0.08195527  0.65903639     0.84500
C1770       C  0.57151497  0.10670843  0.61641589     0.84800
O1771       O  0.59790675  0.12503367  0.62669612    -0.80100
O1772       O  0.59814224  0.01058475  0.73432555    -0.77600
C1773       C  0.57920098  0.11265227  0.70813034     0.83400
O1774       O  0.62049518  0.46741364  0.70506373    -0.78700
O1775       O  0.67214049  0.11539703  0.68052647    -0.80200
O1776       O  0.74577193  0.16787884  0.72719983    -0.80000
O1777       O  0.66594448  0.05119860  0.74427442    -0.78600
Zn1778     Zn  0.60631717  0.04466828  0.71680125     1.55700
O1779       O  0.73086270  0.18454538  0.70625612    -0.80000
Cd1780     Cd  0.70563511  0.09547542  0.72804172     1.59700
Cd1781     Cd  0.67536576  0.03294786  0.70054744     1.59600
O1782       O  0.75552191  0.07848383  0.72591970    -0.80000
O1783       O  0.66702308  0.07749671  0.71163714    -1.90500
Cd1784     Cd  0.67172011  0.12894777  0.70082888     1.59900
O1785       O  0.73770138  0.03914655  0.70641260    -0.76400
O1786       O  0.61678589  0.13945076  0.70242396    -0.78600
C1787       C  0.58153009  0.46415293  0.70491362     0.83900
C1788       C  0.62529560  0.01689026  0.74409655     0.83600
O1789       O  0.57346776  0.07869449  0.71516049    -0.77600
C1790       C  0.75531617  0.19510758  0.71695056     0.84400
O1791       O  0.57838786  0.49902455  0.70275286    -0.77700
C1792       C  0.76402315  0.05750742  0.71670692     0.84500
C1793       C  0.67008801  0.08213790  0.67398215     0.84800
O1794       O  0.67161199  0.04922540  0.67993167    -0.80100
O1795       O  0.59257727  0.26492135  0.88213499    -0.77600
C1796       C  0.65535686  0.21346490  0.91078148     0.83400
O1797       O  0.70441363  0.21877462  0.87157558    -0.78700
O1798       O  0.59392144  0.08334719  0.89239743    -0.80200
O1799       O  0.98732448  0.10813876  0.87298131    -0.80000
O1800       O  0.53259297  0.22202608  0.86906376    -0.78600
Zn1801     Zn  0.62693146  0.23237020  0.88360019     1.55700
O1802       O  0.50425538  0.09272172  0.89381614    -0.80000
Cd1803     Cd  0.54290695  0.16701264  0.86752755     1.59700
Cd1804     Cd  0.63897794  0.16361046  0.86709317     1.59600
O1805       O  0.55553118  0.16548063  0.84722655    -0.80000
O1806       O  0.59447497  0.17174144  0.87829198    -1.90500
Cd1807     Cd  0.57675265  0.13303520  0.89467596     1.59900
O1808       O  0.62181491  0.16626767  0.84648869    -0.80000
O1809       O  0.62132307  0.17263733  0.91092572    -0.78600
C1810       C  0.70752882  0.25768068  0.87166781     0.83900
C1811       C  0.55894373  0.25935232  0.87496693     0.83600
O1812       O  0.66119751  0.24065123  0.90107099    -0.77600
C1813       C  0.97689054  0.08344692  0.88360801     0.84400
O1814       O  0.67260432  0.26083492  0.86960854    -0.77700
C1815       C  0.58843338  0.16708741  0.84060127     0.84500
C1816       C  0.61496864  0.07502871  0.88316079     0.84800
O1817       O  0.63330345  0.10147654  0.87289718    -0.80100
O1818       O  0.51480961  0.09659791  0.76512335    -0.77600
C1819       C  0.61706866  0.07805853  0.79131235     0.83400
O1820       O  0.97156188  0.11855673  0.79465508    -0.78700
O1821       O  0.62053315  0.17196663  0.81900234    -0.80200
O1822       O  0.67145342  0.24483315  0.77240424    -0.80000
O1823       O  0.55418181  0.16478648  0.75533892    -0.78600
Zn1824     Zn  0.54909053  0.10496835  0.78260131     1.55700
O1825       O  0.68851016  0.22935053  0.79321468    -0.80000
Cd1826     Cd  0.59895886  0.20438128  0.77156481     1.59700
Cd1827     Cd  0.53695763  0.17367345  0.79916329     1.59600
O1828       O  0.58176895  0.25402705  0.77391209    -0.80000
O1829       O  0.58143086  0.16560402  0.78793313    -1.90500
Cd1830     Cd  0.63305779  0.17042755  0.79868951     1.59900
O1831       O  0.54255831  0.23583268  0.79344139    -0.80000
O1832       O  0.64343639  0.11544985  0.79718072    -0.78600
C1833       C  0.96843518  0.07964776  0.79452162     0.83900
C1834       C  0.52035008  0.12383951  0.75545821     0.83600
O1835       O  0.58344908  0.07242539  0.78412516    -0.77600
C1836       C  0.69885200  0.25410423  0.78260378     0.84400
O1837       O  0.00334172  0.07644578  0.79656436    -0.77700
C1838       C  0.56080226  0.26231622  0.78318168     0.84500
C1839       C  0.58757265  0.17020845  0.82563406     0.84800
O1840       O  0.55412452  0.17090837  0.81975294    -0.80100
O1841       O  0.74291496  0.32833605  0.88194033    -0.77600
C1842       C  0.79459540  0.44256684  0.91077614     0.83400
O1843       O  0.78954480  0.48648110  0.87159613    -0.78700
O1844       O  0.92473893  0.01129912  0.89242034    -0.80200
O1845       O  0.90021227  0.38005340  0.87306354    -0.80000
O1846       O  0.78623394  0.31110201  0.86912601    -0.78600
Zn1847     Zn  0.77566336  0.39520002  0.88357988     1.55700
O1848       O  0.91552440  0.41245702  0.89389032    -0.80000
Cd1849     Cd  0.84116833  0.37648946  0.86757895     1.59700
Cd1850     Cd  0.84452086  0.47593677  0.86706133     1.59600
O1851       O  0.84205198  0.39015446  0.84725178    -0.80000
O1852       O  0.83634838  0.42335478  0.87830057    -1.90500
Cd1853     Cd  0.87508586  0.44448779  0.89468114     1.59900
O1854       O  0.84098641  0.45549588  0.84646070    -0.80000
O1855       O  0.83549263  0.44954779  0.91088952    -0.78600
C1856       C  0.75061217  0.45073749  0.87165777     0.83900
C1857       C  0.74866217  0.30022762  0.87485537     0.83600
O1858       O  0.76731355  0.42102033  0.90109950    -0.77600
C1859       C  0.92487070  0.39436481  0.88370208     0.84400
O1860       O  0.74743323  0.41267204  0.86958007    -0.77700
C1861       C  0.83989921  0.42111552  0.84060375     0.84500
C1862       C  0.93317745  0.04057543  0.88315050     0.84800
O1863       O  0.90683750  0.03237475  0.87284411    -0.80100
O1864       O  0.90816920  0.41589907  0.76520001    -0.77600
C1865       C  0.92725965  0.03714064  0.79134430     0.83400
O1866       O  0.88602634  0.35084493  0.79473578    -0.78700
O1867       O  0.83379343  0.44753587  0.81899111    -0.80200
O1868       O  0.76021647  0.42516049  0.77236156    -0.80000
O1869       O  0.84012259  0.38796611  0.75536063    -0.78600
Zn1870     Zn  0.90002037  0.44205876  0.78268698     1.55700
O1871       O  0.77562580  0.45758694  0.79318374    -0.80000
Cd1872     Cd  0.80062897  0.39311329  0.77157129     1.59700
Cd1873     Cd  0.83110739  0.36156465  0.79920708     1.59600
O1874       O  0.75094887  0.32631677  0.77381639    -0.80000
O1875       O  0.83936491  0.41414694  0.78795368    -1.90500
Cd1876     Cd  0.83467295  0.46111191  0.79865513     1.59900
O1877       O  0.76882288  0.30519741  0.79339042    -0.80000
O1878       O  0.88971228  0.02639539  0.79706893    -0.78600
C1879       C  0.92496384  0.38657344  0.79470179     0.83900
C1880       C  0.88087469  0.39455513  0.75550469     0.83600
O1881       O  0.93292064  0.00894605  0.78427337    -0.77600
C1882       C  0.75089784  0.44323408  0.78255898     0.84400
O1883       O  0.92811038  0.42463860  0.79674865    -0.77700
C1884       C  0.74251294  0.29701620  0.78307740     0.84500
C1885       C  0.83580270  0.41651089  0.82564749     0.84800
O1886       O  0.83458915  0.38205829  0.81979858    -0.80100
O1887       O  0.68010260  0.41566773  0.88201654    -0.77600
C1888       C  0.56631826  0.35350237  0.91093044     0.83400
O1889       O  0.52180835  0.30371745  0.87184159    -0.78700
O1890       O  0.99718393  0.41464721  0.89249693    -0.80200
O1891       O  0.62810000  0.02075163  0.87292224    -0.80000
O1892       O  0.69696313  0.47567743  0.86898667    -0.78600
Zn1893     Zn  0.61322165  0.38140596  0.88367092     1.55700
O1894       O  0.59632776  0.00410207  0.89383940    -0.80000
Cd1895     Cd  0.63150932  0.46514399  0.86748530     1.59700
Cd1896     Cd  0.53210679  0.36906142  0.86727064     1.59600
O1897       O  0.61714032  0.45180315  0.84719347    -0.80000
O1898       O  0.58492376  0.41375804  0.87835936    -1.90500
Cd1899     Cd  0.56405746  0.43168919  0.89472772     1.59900
O1900       O  0.55171014  0.38545883  0.84663856    -0.80000
O1901       O  0.55938666  0.38745064  0.91102119    -0.78600
C1902       C  0.55756113  0.30052761  0.87185624     0.83900
C1903       C  0.70805577  0.44932149  0.87483721     0.83600
O1904       O  0.58762085  0.34754255  0.90122889    -0.77600
C1905       C  0.61413742  0.03132522  0.88359300     0.84400
O1906       O  0.59564764  0.33539084  0.86977047    -0.77700
C1907       C  0.58585433  0.41858594  0.84066112     0.84500
C1908       C  0.96774886  0.39350893  0.88328487     0.84800
O1909       O  0.97577102  0.37499169  0.87304967    -0.80100
O1910       O  0.58775270  0.48966985  0.76519808    -0.77600
C1911       C  0.96756433  0.38801457  0.79156577     0.83400
O1912       O  0.65407741  0.03360241  0.79449018    -0.78700
O1913       O  0.55843094  0.38553898  0.81916453    -0.80200
O1914       O  0.57937144  0.33324993  0.77253594    -0.80000
O1915       O  0.61566103  0.44958031  0.75532859    -0.78600
Zn1916     Zn  0.56246542  0.45600501  0.78278006     1.55700
O1917       O  0.54759974  0.31652568  0.79345244    -0.80000
Cd1918     Cd  0.61151329  0.40563509  0.77163400     1.59700
Cd1919     Cd  0.64359094  0.46821399  0.79909159     1.59600
O1920       O  0.67852056  0.42293027  0.77379265    -0.80000
O1921       O  0.59070334  0.42353661  0.78801957    -1.90500
Cd1922     Cd  0.54406302  0.37209905  0.79887458     1.59900
O1923       O  0.69990390  0.46231228  0.79328863    -0.80000
O1924       O  0.97852575  0.36144107  0.79734069    -0.78600
C1925       C  0.61838996  0.03689726  0.79450163     0.83900
C1926       C  0.60875864  0.48354567  0.75544501     0.83600
O1927       O  0.49566010  0.42186386  0.78448354    -0.77600
C1928       C  0.56159115  0.30600078  0.78277698     0.84400
O1929       O  0.58030530  0.00212082  0.79666586    -0.77700
C1930       C  0.70796300  0.44398357  0.78301219     0.84500
C1931       C  0.58975410  0.41872993  0.82569711     0.84800
O1932       O  0.62394769  0.45182090  0.81972225    -0.80100
O1933       O  0.84016005  0.24210433  0.54855564    -0.77600
C1934       C  0.72681764  0.18020019  0.57752712     0.83400
O1935       O  0.68186073  0.13052531  0.53843513    -0.78700
O1936       O  0.65741384  0.24114153  0.55922998    -0.80200
O1937       O  0.78835666  0.34761815  0.53965896    -0.80000
O1938       O  0.85735598  0.30261278  0.53572948    -0.78600
Zn1939     Zn  0.77334691  0.20797937  0.55022259     1.55700
O1940       O  0.75646901  0.33076865  0.56055691    -0.80000
Cd1941     Cd  0.79188218  0.29207712  0.53418853     1.59700
Cd1942     Cd  0.69238299  0.19598260  0.53386588     1.59600
O1943       O  0.77771870  0.27892647  0.51388245    -0.80000
O1944       O  0.74518474  0.24053909  0.54499299    -1.90500
Cd1945     Cd  0.72435837  0.25836129  0.56139531     1.59900
O1946       O  0.71226795  0.21259924  0.51323955    -0.80000
O1947       O  0.71998557  0.21420770  0.57765883    -0.78600
C1948       C  0.71756569  0.12725634  0.53843295     0.83900
C1949       C  0.86827643  0.27598136  0.54148635     0.83600
O1950       O  0.74788027  0.17411951  0.56777984    -0.77600
C1951       C  0.77430871  0.35808563  0.55033339     0.84400
O1952       O  0.75563018  0.16206276  0.53627915    -0.77700
C1953       C  0.74651177  0.24577929  0.50730636     0.84500
C1954       C  0.62800897  0.22018878  0.54999573     0.84800
O1955       O  0.63608586  0.20193432  0.53969990    -0.80100
O1956       O  0.74940013  0.31761793  0.43174458    -0.77600
C1957       C  0.62893235  0.21567026  0.45814210     0.83400
O1958       O  0.81508617  0.36131100  0.46121617    -0.78700
O1959       O  0.71956751  0.21285408  0.48576413    -0.80200
O1960       O  0.74116429  0.16120930  0.43911855    -0.80000
O1961       O  0.77825929  0.27819534  0.42200598    -0.78600
Zn1962     Zn  0.72374594  0.28362253  0.44928858     1.55700
O1963       O  0.70899916  0.14434912  0.45998268    -0.80000
Cd1964     Cd  0.77327513  0.23365697  0.43826543     1.59700
Cd1965     Cd  0.80475475  0.29595713  0.46579336     1.59600
O1966       O  0.84012671  0.25079422  0.44057415    -0.80000
O1967       O  0.75211872  0.25134662  0.45462643    -1.90500
Cd1968     Cd  0.70547478  0.19982821  0.46545116     1.59900
O1969       O  0.86124344  0.29016539  0.46007465    -0.80000
O1970       O  0.64002504  0.18926574  0.46395842    -0.78600
C1971       C  0.77933269  0.36449909  0.46114156     0.83900
C1972       C  0.77107249  0.31198404  0.42208688     0.83600
O1973       O  0.65685649  0.24933131  0.45095840    -0.77600
C1974       C  0.72318815  0.13389567  0.44933943     0.84400
O1975       O  0.74121670  0.32962807  0.46318488    -0.77700
C1976       C  0.86943093  0.27182348  0.44982543     0.84500
C1977       C  0.75064832  0.24608875  0.49234221     0.84800
O1978       O  0.78479633  0.27936351  0.48640904    -0.80100
O1979       O  0.75260596  0.09182123  0.54881717    -0.77600
C1980       C  0.81533001  0.04040876  0.57763595     0.83400
O1981       O  0.86455682  0.04557398  0.53849245    -0.78700
O1982       O  0.75410383  0.41008619  0.55918994    -0.80200
O1983       O  0.64757214  0.43481017  0.53975827    -0.80000
O1984       O  0.69256747  0.04867917  0.53579750    -0.78600
Zn1985     Zn  0.78692494  0.05924024  0.55042813     1.55700
O1986       O  0.66446477  0.41949701  0.56061731    -0.80000
Cd1987     Cd  0.70308100  0.49376749  0.53430709     1.59700
Cd1988     Cd  0.79918880  0.49050331  0.53394444     1.59600
O1989       O  0.71599202  0.49249335  0.51400616    -0.80000
O1990       O  0.75461004  0.99858772  0.54511767    -1.90500
Cd1991     Cd  0.73694163  0.45980922  0.56148941     1.59900
O1992       O  0.78238317  0.49350009  0.51332957    -0.80000
O1993       O  0.78148653  0.49946876  0.57774576    -0.78600
C1994       C  0.86769638  0.08448832  0.53856995     0.83900
C1995       C  0.71894557  0.08612395  0.54163784     0.83600
O1996       O  0.82101618  0.06762467  0.56794793    -0.77600
C1997       C  0.63713569  0.41016249  0.55039697     0.84400
O1998       O  0.83280284  0.08768530  0.53649316    -0.77700
C1999       C  0.74906663  0.49435082  0.50741150     0.84500
C2000       C  0.77512248  0.40179346  0.54993579     0.84800
O2001       O  0.79345323  0.42829918  0.53968519    -0.80100
O2002       O  0.67573810  0.42473422  0.43201574    -0.77600
C2003       C  0.77801003  0.40571844  0.45804288     0.83400
O2004       O  0.63277794  0.44657610  0.46148725    -0.78700
O2005       O  0.78141429  0.99935221  0.48583949    -0.80200
O2006       O  0.83301914  0.07244289  0.43922311    -0.80000
O2007       O  0.71613000  0.99258725  0.42210161    -0.78600
Zn2008     Zn  0.71010068  0.43286398  0.44946681     1.55700
O2009       O  0.84983511  0.05709379  0.46008410    -0.80000
Cd2010     Cd  0.76056958  0.03213084  0.43835702     1.59700
Cd2011     Cd  0.69826460  0.50168805  0.46593035     1.59600
O2012       O  0.74342895  0.08184364  0.44057150    -0.80000
O2013       O  0.74273616  0.49347060  0.45475138    -1.90500
Cd2014     Cd  0.79423741  0.49811523  0.46552589     1.59900
O2015       O  0.70404762  0.06381932  0.46007199    -0.80000
O2016       O  0.80445579  0.44304189  0.46393584    -0.78600
C2017       C  0.62965819  0.40767086  0.46146242     0.83900
C2018       C  0.68185526  0.45191091  0.42227451     0.83600
O2019       O  0.74435794  0.40020351  0.45089325    -0.77600
C2020       C  0.86031480  0.08177497  0.44944923     0.84400
O2021       O  0.66460951  0.40456569  0.46351936    -0.77700
C2022       C  0.72238289  0.09020902  0.44979461     0.84500
C2023       C  0.74848298  0.99777520  0.49244471     0.84800
O2024       O  0.71527454  0.99886550  0.48653728    -0.80100
O2025       O  0.90320527  0.15517520  0.54881941    -0.77600
C2026       C  0.95508221  0.26971246  0.57749411     0.83400
O2027       O  0.94980219  0.31321169  0.53832533    -0.78700
O2028       O  0.58508911  0.33795411  0.55919236    -0.80200
O2029       O  0.56035164  0.20662309  0.53984368    -0.80000
O2030       O  0.94634350  0.13785207  0.53594498    -0.78600
Zn2031     Zn  0.93599064  0.22207502  0.55035001     1.55700
O2032       O  0.57581897  0.23909156  0.56065951    -0.80000
Cd2033     Cd  0.00136077  0.20315709  0.53437798     1.59700
Cd2034     Cd  0.00483997  0.30269166  0.53386699     1.59600
O2035       O  0.50248886  0.21695962  0.51405943    -0.80000
O2036       O  0.99665454  0.25008704  0.54508902    -1.90500
Cd2037     Cd  0.53540610  0.27116255  0.56146094     1.59900
O2038       O  0.50166161  0.28242913  0.51328620    -0.80000
O2039       O  0.49586939  0.27639152  0.57765020    -0.78600
C2040       C  0.91088808  0.27744991  0.53835180     0.83900
C2041       C  0.90885897  0.12702265  0.54172448     0.83600
O2042       O  0.92780135  0.24824890  0.56780988    -0.77600
C2043       C  0.58509828  0.22098034  0.55046148     0.84400
O2044       O  0.90778421  0.23940235  0.53629834    -0.77700
C2045       C  0.50060836  0.24808420  0.50742139     0.84500
C2046       C  0.59345447  0.36727794  0.54994387     0.84800
O2047       O  0.56706307  0.35912453  0.53965746    -0.80100
O2048       O  0.57001682  0.24465685  0.43201583    -0.77600
C2049       C  0.58853603  0.36508155  0.45831192     0.83400
O2050       O  0.54748059  0.17862836  0.46143059    -0.78700
O2051       O  0.99489178  0.27484362  0.48583920    -0.80200
O2052       O  0.92172881  0.25298182  0.43922929    -0.80000
O2053       O  0.00189812  0.21623590  0.42218870    -0.78600
Zn2054     Zn  0.56156122  0.27012898  0.44956865     1.55700
O2055       O  0.93695980  0.28529353  0.46006752    -0.80000
Cd2056     Cd  0.96211811  0.22090461  0.43841518     1.59700
Cd2057     Cd  0.99258202  0.18925984  0.46599139     1.59600
O2058       O  0.91244977  0.15399849  0.44064664    -0.80000
O2059       O  0.50082429  0.24196152  0.45479919    -1.90500
Cd2060     Cd  0.99599359  0.28880486  0.46553613     1.59900
O2061       O  0.93031601  0.13286624  0.46021609    -0.80000
O2062       O  0.55093600  0.35423371  0.46401904    -0.78600
C2063       C  0.58644537  0.21431992  0.46138197     0.83900
C2064       C  0.54282546  0.22329216  0.42230623     0.83600
O2065       O  0.59431726  0.33693064  0.45126554    -0.77600
C2066       C  0.91233813  0.27102074  0.44942171     0.84400
O2067       O  0.58971247  0.25239441  0.46352535    -0.77700
C2068       C  0.90399813  0.12468499  0.44991009     0.84500
C2069       C  0.99686128  0.24374474  0.49246567     0.84800
O2070       O  0.99586881  0.20944334  0.48659004    -0.80100
O2071       O  0.99174960  0.06951625  0.28440247    -0.77600
C2072       C  0.60635824  0.12153083  0.25564296     0.83400
O2073       O  0.64993322  0.11602045  0.29476306    -0.78700
O2074       O  0.67450754  0.25142473  0.27396072    -0.80200
O2075       O  0.54348508  0.22669223  0.29338026    -0.80000
O2076       O  0.97459491  0.11267220  0.29732976    -0.78600
Zn2077     Zn  0.55869262  0.10225210  0.28280718     1.55700
O2078       O  0.57553986  0.24183866  0.27250328    -0.80000
Cd2079     Cd  0.53997679  0.16765373  0.29888192     1.59700
Cd2080     Cd  0.63947039  0.17104618  0.29928363     1.59600
O2081       O  0.55379911  0.16842039  0.31920814    -0.80000
O2082       O  0.58677770  0.16288054  0.28811156    -1.90500
Cd2083     Cd  0.60776183  0.20164176  0.27173691     1.59900
O2084       O  0.61918632  0.16740146  0.31989317    -0.80000
O2085       O  0.61305949  0.16230964  0.25552782    -0.78600
C2086       C  0.61418212  0.07709356  0.29475571     0.83900
C2087       C  0.96366997  0.07518393  0.29153615     0.83600
O2088       O  0.58482765  0.09415091  0.26530279    -0.77600
C2089       C  0.55759861  0.25124932  0.28271393     0.84400
O2090       O  0.57610797  0.07394732  0.29680961    -0.77700
C2091       C  0.58483133  0.16620674  0.32580238     0.84500
C2092       C  0.70392015  0.25978596  0.28317809     0.84800
O2093       O  0.69585915  0.23337090  0.29345789    -0.80100
O2094       O  0.58125999  0.23399159  0.40132919    -0.77600
C2095       C  0.70174641  0.25265143  0.37487665     0.83400
O2096       O  0.51534189  0.21188827  0.37189330    -0.78700
O2097       O  0.61135303  0.15955106  0.34733928    -0.80200
O2098       O  0.58972197  0.08602908  0.39399021    -0.80000
O2099       O  0.55256728  0.16571197  0.41105964    -0.78600
Zn2100     Zn  0.60685750  0.22572161  0.38375721     1.55700
O2101       O  0.62169173  0.10115855  0.37309958    -0.80000
Cd2102     Cd  0.55747819  0.12620536  0.39481203     1.59700
Cd2103     Cd  0.52583226  0.15694239  0.36730117     1.59600
O2104       O  0.99062688  0.07642619  0.39257062    -0.80000
O2105       O  0.57855244  0.16505821  0.37845369    -1.90500
Cd2106     Cd  0.62526388  0.16022611  0.36764714     1.59900
O2107       O  0.96940953  0.09457466  0.37306636    -0.80000
O2108       O  0.69074551  0.21505722  0.36914520    -0.78600
C2109       C  0.55105443  0.25084451  0.37192344     0.83900
C2110       C  0.55966851  0.20664282  0.41098662     0.83600
O2111       O  0.67374992  0.25844607  0.38200890    -0.77600
C2112       C  0.60760940  0.07660990  0.38376599     0.84400
O2113       O  0.58917114  0.25410121  0.36985613    -0.77700
C2114       C  0.96126473  0.06810103  0.38333365     0.84500
C2115       C  0.58035806  0.16186389  0.34075715     0.84800
O2116       O  0.54604615  0.16072215  0.34667771    -0.80100
O2117       O  0.57903750  0.50648844  0.28448571    -0.77600
C2118       C  0.51711788  0.39330064  0.25553938     0.83400
O2119       O  0.96717034  0.34819800  0.29457681    -0.78700
O2120       O  0.57785271  0.32354140  0.27390199    -0.80200
O2121       O  0.68424717  0.45456441  0.29350017    -0.80000
O2122       O  0.63914188  0.02344194  0.29747766    -0.78600
Zn2123     Zn  0.54485381  0.43968719  0.28284076     1.55700
O2124       O  0.66751825  0.42270410  0.27259699    -0.80000
Cd2125     Cd  0.62863264  0.45795639  0.29895313     1.59700
Cd2126     Cd  0.53250230  0.35849523  0.29916195     1.59600
O2127       O  0.61536571  0.44334754  0.31923118    -0.80000
O2128       O  0.57722934  0.41135809  0.28808979    -1.90500
Cd2129     Cd  0.59509436  0.39051404  0.27170624     1.59900
O2130       O  0.54904203  0.37788195  0.31979515    -0.80000
O2131       O  0.55101908  0.38628886  0.25542091    -0.78600
C2132       C  0.96401069  0.38395820  0.29457450     0.83900
C2133       C  0.61274141  0.03449562  0.29163259     0.83600
O2134       O  0.51109323  0.41439299  0.26528461    -0.77600
C2135       C  0.69478407  0.44055343  0.28283324     0.84400
O2136       O  0.99885337  0.42198183  0.29674670    -0.77700
C2137       C  0.58225277  0.41195640  0.32576889     0.84500
C2138       C  0.55675303  0.29412181  0.28312338     0.84800
O2139       O  0.53832465  0.30217131  0.29337199    -0.80100
O2140       O  0.65434295  0.41407271  0.40122472    -0.77600
C2141       C  0.55238427  0.29339164  0.37503327     0.83400
O2142       O  0.69786424  0.47947642  0.37184742    -0.78700
O2143       O  0.54957352  0.38425968  0.34728650    -0.80200
O2144       O  0.99759909  0.40532819  0.39389320    -0.80000
O2145       O  0.61433165  0.44206592  0.41108835    -0.78600
Zn2146     Zn  0.62025167  0.38828150  0.38372993     1.55700
O2147       O  0.98085839  0.37322098  0.37302209    -0.80000
Cd2148     Cd  0.57003469  0.43742845  0.39480457     1.59700
Cd2149     Cd  0.63253310  0.46925687  0.36731753     1.59600
O2150       O  0.58728151  0.00433263  0.39256561    -0.80000
O2151       O  0.58785200  0.41650870  0.37842936    -1.90500
Cd2152     Cd  0.53646053  0.36982535  0.36758206     1.59900
O2153       O  0.62683225  0.02565968  0.37309869    -0.80000
O2154       O  0.52608596  0.30442415  0.36911142    -0.78600
C2155       C  0.70094858  0.44367304  0.37186806     0.83900
C2156       C  0.64837073  0.43526660  0.41095227     0.83600
O2157       O  0.58596625  0.32141232  0.38222166    -0.77600
C2158       C  0.97033702  0.38737524  0.38365953     0.84400
O2159       O  0.66602356  0.40564786  0.36976656    -0.77700
C2160       C  0.60841485  0.03373279  0.38334625     0.84500
C2161       C  0.58265025  0.41564978  0.34073765     0.84800
O2162       O  0.61585615  0.44975449  0.34670125    -0.80100
O2163       O  0.92866498  0.41927502  0.28430993    -0.77600
C2164       C  0.87722084  0.48219260  0.25556273     0.83400
O2165       O  0.88218994  0.03083552  0.29483438    -0.78700
O2166       O  0.74693101  0.42060011  0.27396238    -0.80200
O2167       O  0.77159362  0.31382132  0.29329933    -0.80000
O2168       O  0.88539774  0.35877829  0.29714837    -0.78600
Zn2169     Zn  0.89601013  0.45351584  0.28274516     1.55700
O2170       O  0.75607782  0.33087968  0.27249712    -0.80000
Cd2171     Cd  0.83053677  0.36926693  0.29872116     1.59700
Cd2172     Cd  0.82712571  0.46528899  0.29930336     1.59600
O2173       O  0.82922563  0.38166665  0.31903788    -0.80000
O2174       O  0.83532394  0.42098014  0.28802147    -1.90500
Cd2175     Cd  0.79660265  0.40342005  0.27163535     1.59900
O2176       O  0.83001665  0.44792655  0.31988752    -0.80000
O2177       O  0.83632644  0.44824076  0.25541423    -0.78600
C2178       C  0.92112969  0.03401412  0.29471845     0.83900
C2179       C  0.92291486  0.38540711  0.29138862     0.83600
O2180       O  0.90439575  0.48785633  0.26526466    -0.77600
C2181       C  0.74681966  0.30347183  0.28269562     0.84400
O2182       O  0.92433178  0.99911922  0.29676054    -0.77700
C2183       C  0.83093014  0.41450658  0.32571740     0.84500
C2184       C  0.73850978  0.44140332  0.28325287     0.84800
O2185       O  0.76488791  0.45952939  0.29354542    -0.80100
O2186       O  0.76070468  0.33974395  0.40106060    -0.77600
C2187       C  0.74206110  0.44219105  0.37500189     0.83400
O2188       O  0.78320659  0.29701588  0.37153294    -0.78700
O2189       O  0.83590537  0.44631201  0.34736533    -0.80200
O2190       O  0.90896477  0.49695484  0.39396270    -0.80000
O2191       O  0.82867570  0.37967023  0.41095325    -0.78600
Zn2192     Zn  0.76906803  0.37409644  0.38357782     1.55700
O2193       O  0.89360467  0.01411701  0.37315667    -0.80000
Cd2194     Cd  0.86841698  0.42444003  0.39475955     1.59700
Cd2195     Cd  0.83814319  0.36266242  0.36707395     1.59600
O2196       O  0.91809660  0.40726909  0.39248740    -0.80000
O2197       O  0.82979274  0.40687756  0.37835598    -1.90500
Cd2198     Cd  0.83459594  0.45866619  0.36769366     1.59900
O2199       O  0.90037767  0.36851497  0.37287488    -0.80000
O2200       O  0.77963482  0.46903140  0.36930122    -0.78600
C2201       C  0.74424233  0.29376943  0.37161783     0.83900
C2202       C  0.78786936  0.34559021  0.41078476     0.83600
O2203       O  0.73630387  0.40818118  0.38200420    -0.77600
C2204       C  0.91832256  0.02441357  0.38377606     0.84400
O2205       O  0.74101116  0.32861500  0.36951431    -0.77700
C2206       C  0.92662976  0.38655016  0.38319854     0.84500
C2207       C  0.83426888  0.41350990  0.34067860     0.84800
O2208       O  0.83525216  0.38011184  0.34649989    -0.80100
O2209       O  0.92188192  0.42889223  0.21530926    -0.77600
C2210       C  0.98375910  0.37685281  0.24419638     0.83400
O2211       O  0.53346162  0.38208371  0.20520774    -0.78700
O2212       O  0.92227696  0.24684316  0.22592959    -0.80200
O2213       O  0.81630392  0.27168118  0.20627127    -0.80000
O2214       O  0.86156132  0.38579325  0.20238162    -0.78600
Zn2215     Zn  0.95599720  0.39609540  0.21693897     1.55700
O2216       O  0.83292603  0.25675654  0.22722176    -0.80000
Cd2217     Cd  0.87197730  0.33077936  0.20082940     1.59700
Cd2218     Cd  0.96802776  0.32720184  0.20064094     1.59600
O2219       O  0.88563711  0.33017929  0.18053260    -0.80000
O2220       O  0.92334149  0.33545217  0.21168989    -1.90500
Cd2221     Cd  0.90530099  0.29672749  0.22806908     1.59900
O2222       O  0.95189436  0.33085346  0.18000881    -0.80000
O2223       O  0.94953220  0.33616780  0.24432999    -0.78600
C2224       C  0.53673897  0.42105155  0.20511343     0.83900
C2225       C  0.88812911  0.42326191  0.20818636     0.83600
O2226       O  0.98996373  0.40413174  0.23447456    -0.77600
C2227       C  0.80571591  0.24723968  0.21696916     0.84400
O2228       O  0.50189332  0.42427737  0.20297202    -0.77700
C2229       C  0.91895791  0.33222729  0.17402046     0.84500
C2230       C  0.94348969  0.23850394  0.21675474     0.84800
O2231       O  0.96198883  0.26493391  0.20649332    -0.80100
O2232       O  0.84870604  0.26447029  0.09852260    -0.77600
C2233       C  0.95052472  0.24580785  0.12494193     0.83400
O2234       O  0.80479461  0.28634255  0.12783927    -0.78700
O2235       O  0.95261658  0.33884459  0.15255933    -0.80200
O2236       O  0.50517040  0.41215530  0.10584481    -0.80000
O2237       O  0.88843895  0.33268068  0.08876462    -0.78600
Zn2238     Zn  0.88258893  0.27271096  0.11607756     1.55700
O2239       O  0.52183818  0.39720781  0.12678801    -0.80000
Cd2240     Cd  0.93277489  0.37215796  0.10501839     1.59700
Cd2241     Cd  0.87007655  0.34138443  0.13243648     1.59600
O2242       O  0.91580100  0.42202127  0.10724387    -0.80000
O2243       O  0.91488064  0.33334528  0.12137923    -1.90500
Cd2244     Cd  0.96625435  0.33816692  0.13226582     1.59900
O2245       O  0.87602339  0.40370111  0.12666914    -0.80000
O2246       O  0.97685663  0.28326287  0.13078827    -0.78600
C2247       C  0.80163723  0.24742037  0.12788714     0.83900
C2248       C  0.85455477  0.29179247  0.08884941     0.83600
O2249       O  0.91691291  0.24012099  0.11773634    -0.77600
C2250       C  0.53241202  0.42163407  0.11608861     0.84400
O2251       O  0.83654072  0.24425019  0.12998229    -0.77700
C2252       C  0.89459387  0.43027626  0.11644189     0.84500
C2253       C  0.91918115  0.33656001  0.15906551     0.84800
O2254       O  0.88613906  0.33770318  0.15307002    -0.80100
O2255       O  0.57223108  0.49152134  0.21545588    -0.77600
C2256       C  0.62339623  0.10505694  0.24433018     0.83400
O2257       O  0.61841334  0.14976524  0.20518918    -0.78700
O2258       O  0.75378743  0.17503438  0.22583199    -0.80200
O2259       O  0.72920742  0.04350221  0.20641439    -0.80000
O2260       O  0.61528365  0.47470961  0.20236744    -0.78600
Zn2261     Zn  0.60475923  0.05832111  0.21708785     1.55700
O2262       O  0.74472775  0.07604731  0.22722303    -0.80000
Cd2263     Cd  0.67029485  0.04015115  0.20093257     1.59700
Cd2264     Cd  0.67348266  0.13952400  0.20060295     1.59600
O2265       O  0.67209817  0.05470802  0.18064224    -0.80000
O2266       O  0.66544025  0.08682995  0.21175720    -1.90500
Cd2267     Cd  0.70426062  0.10804231  0.22811732     1.59900
O2268       O  0.67095160  0.12002195  0.17998922    -0.80000
O2269       O  0.66446673  0.11250296  0.24440217    -0.78600
C2270       C  0.57949639  0.11401619  0.20534160     0.83900
C2271       C  0.57789078  0.46359252  0.20825737     0.83600
O2272       O  0.59620337  0.08351755  0.23464561    -0.77600
C2273       C  0.75396361  0.05788563  0.21702748     0.84400
O2274       O  0.57620829  0.07590467  0.20323733    -0.77700
C2275       C  0.67043987  0.08605008  0.17405716     0.84500
C2276       C  0.76203990  0.20432917  0.21657443     0.84800
O2277       O  0.73555537  0.19609284  0.20631864    -0.80100
O2278       O  0.74196662  0.08433682  0.09859428    -0.77600
C2279       C  0.76047732  0.20483604  0.12479935     0.83400
O2280       O  0.71987064  0.01880464  0.12803196    -0.78700
O2281       O  0.66623143  0.11390194  0.15249519    -0.80200
O2282       O  0.59368840  0.09284549  0.10591899    -0.80000
O2283       O  0.67394003  0.05611375  0.08873049    -0.78600
Zn2284     Zn  0.73348898  0.10999331  0.11609192     1.55700
O2285       O  0.60923216  0.12525790  0.12674513    -0.80000
Cd2286     Cd  0.63411218  0.06075234  0.10499228     1.59700
Cd2287     Cd  0.66468161  0.02899566  0.13253230     1.59600
O2288       O  0.58444362  0.49382631  0.10724368    -0.80000
O2289       O  0.67281125  0.08171674  0.12138042    -1.90500
Cd2290     Cd  0.66807607  0.12844658  0.13220514     1.59900
O2291       O  0.60261485  0.47258105  0.12673715    -0.80000
O2292       O  0.72316373  0.19378560  0.13072909    -0.78600
C2293       C  0.75875110  0.05461395  0.12796225     0.83900
C2294       C  0.71484439  0.06307295  0.08886494     0.83600
O2295       O  0.76605448  0.17683839  0.11760549    -0.77600
C2296       C  0.58446964  0.11096380  0.11613287     0.84400
O2297       O  0.76185493  0.09263956  0.13006772    -0.77700
C2298       C  0.57613813  0.46447227  0.11648481     0.84500
C2299       C  0.66769032  0.08245722  0.15908185     0.84800
O2300       O  0.66703585  0.04841559  0.15314986    -0.80100
O2301       O  0.00886206  0.07887177  0.21562159    -0.77600
C2302       C  0.89416028  0.01591195  0.24427834     0.83400
O2303       O  0.85102143  0.46767030  0.20491130    -0.78700
O2304       O  0.82601328  0.07774972  0.22588997    -0.80200
O2305       O  0.95736607  0.18459311  0.20665332    -0.80000
O2306       O  0.52632102  0.13955962  0.20283966    -0.78600
Zn2307     Zn  0.94196949  0.04475184  0.21713842     1.55700
O2308       O  0.92462183  0.16741419  0.22743014    -0.80000
Cd2309     Cd  0.96106541  0.12924288  0.20119906     1.59700
Cd2310     Cd  0.86167666  0.03331943  0.20047310     1.59600
O2311       O  0.94789045  0.11702389  0.18084021    -0.80000
O2312       O  0.91401999  0.07744392  0.21183683    -1.90500
Cd2313     Cd  0.89278670  0.09491471  0.22823035     1.59900
O2314       O  0.88246673  0.05076998  0.17990199    -0.80000
O2315       O  0.88744680  0.05000871  0.24443953    -0.78600
C2316       C  0.88676751  0.46446746  0.20504267     0.83900
C2317       C  0.53705202  0.11274251  0.20855798     0.83600
O2318       O  0.91566127  0.01018533  0.23458408    -0.77600
C2319       C  0.94279466  0.19485764  0.21724480     0.84400
O2320       O  0.92487638  0.49938648  0.20306058    -0.77700
C2321       C  0.91696859  0.08415185  0.17411598     0.84500
C2322       C  0.79686066  0.05708732  0.21657640     0.84800
O2323       O  0.80518838  0.03913568  0.20624724    -0.80100
O2324       O  0.92249984  0.15854368  0.09865376    -0.77600
C2325       C  0.80132783  0.05609342  0.12478399     0.83400
O2326       O  0.98759437  0.20138491  0.12828433    -0.78700
O2327       O  0.89080125  0.05214196  0.15244564    -0.80200
O2328       O  0.91353129  0.00145583  0.10583279    -0.80000
O2329       O  0.95066453  0.11863235  0.08882382    -0.78600
Zn2330     Zn  0.89642162  0.12421781  0.11615633     1.55700
O2331       O  0.88105474  0.48431028  0.12664464    -0.80000
Cd2332     Cd  0.94552529  0.07394280  0.10505039     1.59700
Cd2333     Cd  0.97692025  0.13573851  0.13276691     1.59600
O2334       O  0.51232699  0.09107669  0.10732956    -0.80000
O2335       O  0.92443660  0.09154814  0.12144711    -1.90500
Cd2336     Cd  0.87745178  0.03974362  0.13210394     1.59900
O2337       O  0.53335402  0.12982997  0.12694604    -0.80000
O2338       O  0.81211597  0.02928345  0.13047878    -0.78600
C2339       C  0.95187497  0.20463820  0.12815569     0.83900
C2340       C  0.94392268  0.15270408  0.08895744     0.83600
O2341       O  0.82952473  0.09007870  0.11775964    -0.77600
C2342       C  0.89542142  0.47399619  0.11601567     0.84400
O2343       O  0.91376241  0.16977792  0.13019050    -0.77700
C2344       C  0.54157984  0.11180077  0.11661413     0.84500
C2345       C  0.92174895  0.08503631  0.15915723     0.84800
O2346       O  0.95624074  0.11840442  0.15335958    -0.80100
O2347       O  0.82702608  0.25382821  0.06781627    -0.77600
C2348       C  0.72519427  0.13342696  0.04151973     0.83400
O2349       O  0.87075567  0.31967320  0.03840746    -0.78700
O2350       O  0.72235737  0.22409288  0.01384958    -0.80200
O2351       O  0.67061591  0.24546017  0.06052420    -0.80000
O2352       O  0.78723890  0.28216945  0.07762317    -0.78600
Zn2353     Zn  0.79313811  0.22830486  0.05027246     1.55700
O2354       O  0.65370268  0.21339474  0.03964849    -0.80000
Cd2355     Cd  0.74302012  0.27757483  0.06135119     1.59700
Cd2356     Cd  0.80538524  0.30931576  0.03382827     1.59600
O2357       O  0.76029505  0.34448077  0.05913252    -0.80000
O2358       O  0.76076578  0.25659136  0.04496976    -1.90500
Cd2359     Cd  0.70924308  0.20989218  0.03415818     1.59900
O2360       O  0.79963403  0.36575419  0.03962611    -0.80000
O2361       O  0.69874664  0.14442527  0.03567847    -0.78600
C2362       C  0.87395805  0.28393553  0.03846540     0.83900
C2363       C  0.82112841  0.27515174  0.07752076     0.83600
O2364       O  0.75889184  0.16147031  0.04866497    -0.77600
C2365       C  0.64326282  0.22751284  0.05031362     0.84400
O2366       O  0.83911375  0.24585127  0.03635902    -0.77700
C2367       C  0.78134801  0.37386992  0.04990507     0.84500
C2368       C  0.75552492  0.25526881  0.00727101     0.84800
O2369       O  0.78875742  0.28946142  0.01320362    -0.80100
O2370       O  0.75174386  0.34475590  0.95071150    -0.77600
C2371       C  0.68893697  0.23030183  0.92208632     0.83400
O2372       O  0.63986958  0.18685691  0.96124840    -0.78700
O2373       O  0.75052811  0.16187869  0.94051487    -0.80200
O2374       O  0.85681073  0.29297944  0.95992910    -0.80000
O2375       O  0.81154786  0.36173034  0.96386102    -0.78600
Zn2376     Zn  0.71742677  0.27784886  0.94923909     1.55700
O2377       O  0.84002800  0.26081841  0.93906446    -0.80000
Cd2378     Cd  0.80126510  0.29640743  0.96539981     1.59700
Cd2379     Cd  0.70523782  0.19707834  0.96576216     1.59600
O2380       O  0.78830955  0.28233805  0.98571891    -0.80000
O2381       O  0.74982635  0.24967288  0.95458594    -1.90500
Cd2382     Cd  0.76758055  0.22865559  0.93821331     1.59900
O2383       O  0.72193622  0.21697095  0.98637681    -0.80000
O2384       O  0.72298489  0.22351940  0.92195803    -0.78600
C2385       C  0.63680660  0.22267756  0.96120821     0.83900
C2386       C  0.78523829  0.37274148  0.95793921     0.83600
O2387       O  0.68311460  0.25174531  0.93177277    -0.77600
C2388       C  0.86730835  0.27879576  0.94929266     0.84400
O2389       O  0.67178571  0.26072315  0.96323302    -0.77700
C2390       C  0.75516813  0.25116993  0.99230463     0.84500
C2391       C  0.72943865  0.13253559  0.94974875     0.84800
O2392       O  0.71102090  0.14064664  0.95999387    -0.80100
O2393       O  0.93363947  0.18052491  0.06793525    -0.77600
C2394       C  0.91510777  0.28258156  0.04165796     0.83400
O2395       O  0.95585658  0.13719369  0.03842463    -0.78700
O2396       O  0.50881585  0.28592481  0.01402334    -0.80200
O2397       O  0.58194564  0.33721043  0.06062533    -0.80000
O2398       O  0.50175019  0.22017124  0.07775859    -0.78600
Zn2399     Zn  0.94206633  0.21465462  0.05041295     1.55700
O2400       O  0.56652940  0.35417164  0.03979166    -0.80000
Cd2401     Cd  0.54147251  0.26472559  0.06150193     1.59700
Cd2402     Cd  0.51087541  0.20263577  0.03390567     1.59600
O2403       O  0.59115293  0.24751695  0.05919830    -0.80000
O2404       O  0.50273297  0.24709774  0.04511912    -1.90500
Cd2405     Cd  0.50754754  0.29867781  0.03433822     1.59900
O2406       O  0.57310100  0.20843604  0.03964402    -0.80000
O2407       O  0.95258636  0.30909721  0.03585488    -0.78600
C2408       C  0.91692707  0.13403092  0.03850716     0.83900
C2409       C  0.96082515  0.18628492  0.07764231     0.83600
O2410       O  0.90942191  0.24886599  0.04880208    -0.77600
C2411       C  0.59125312  0.36456624  0.05041354     0.84400
O2412       O  0.91372292  0.16891362  0.03644056    -0.77700
C2413       C  0.59953381  0.22665115  0.04991716     0.84500
C2414       C  0.50699179  0.25290856  0.00740651     0.84800
O2415       O  0.50787999  0.21958278  0.01330292    -0.80100
O2416       O  0.60131621  0.25809461  0.95110893    -0.77600
C2417       C  0.54962790  0.32009199  0.92227355     0.83400
O2418       O  0.55437372  0.36932533  0.96144205    -0.78700
O2419       O  0.91948994  0.25868715  0.94053042    -0.80200
O2420       O  0.94412470  0.15213438  0.96009032    -0.80000
O2421       O  0.55816439  0.19744093  0.96390512    -0.78600
Zn2422     Zn  0.56851806  0.29214967  0.94954725     1.55700
O2423       O  0.92886605  0.16901770  0.93922848    -0.80000
Cd2424     Cd  0.50314322  0.20776941  0.96551447     1.59700
Cd2425     Cd  0.49946072  0.30374613  0.96593629     1.59600
O2426       O  0.00198897  0.22065003  0.98582427    -0.80000
O2427       O  0.50782043  0.25933930  0.95476140    -1.90500
Cd2428     Cd  0.96920931  0.24148776  0.93835477     1.59900
O2429       O  0.00239224  0.28674729  0.98654570    -0.80000
O2430       O  0.00892839  0.28584227  0.92210173    -0.78600
C2431       C  0.59333838  0.37257971  0.96143628     0.83900
C2432       C  0.59565088  0.22416690  0.95813758     0.83600
O2433       O  0.57674998  0.32629782  0.93204171    -0.77600
C2434       C  0.91948865  0.14167703  0.94944534     0.84400
O2435       O  0.59655456  0.33774549  0.96358565    -0.77700
C2436       C  0.00354313  0.25354863  0.99244034     0.84500
C2437       C  0.91100267  0.27960522  0.94976743     0.84800
O2438       O  0.93727959  0.29782073  0.96007437    -0.80100
O2439       O  0.75320737  0.07383307  0.06786159    -0.77600
C2440       C  0.87439040  0.09286960  0.04166286     0.83400
O2441       O  0.68811678  0.05192189  0.03831703    -0.78700
O2442       O  0.78432641  0.49933155  0.01396049    -0.80200
O2443       O  0.76257195  0.42609851  0.06057891    -0.80000
O2444       O  0.72518805  0.50574829  0.07766711    -0.78600
Zn2445     Zn  0.77934106  0.06574825  0.05035896     1.55700
O2446       O  0.79481636  0.44146443  0.03973004    -0.80000
Cd2447     Cd  0.73036463  0.46635297  0.06141755     1.59700
Cd2448     Cd  0.69865266  0.99689526  0.03383536     1.59600
O2449       O  0.66356378  0.41659184  0.05917270    -0.80000
O2450       O  0.75131798  0.00512718  0.04504135    -1.90500
Cd2451     Cd  0.79820219  0.00043413  0.03428223     1.59900
O2452       O  0.64226304  0.43464740  0.03966601    -0.80000
O2453       O  0.86351528  0.05542689  0.03585062    -0.78600
C2454       C  0.72384102  0.09086943  0.03838541     0.83900
C2455       C  0.73181705  0.04651203  0.07754565     0.83600
O2456       O  0.84627190  0.09850028  0.04878725    -0.77600
C2457       C  0.78058662  0.41678315  0.05036320     0.84400
O2458       O  0.76195954  0.09408569  0.03636307    -0.77700
C2459       C  0.63417059  0.40823880  0.04994555     0.84500
C2460       C  0.75314320  0.50116653  0.00733771     0.84800
O2461       O  0.71880266  0.50006647  0.01322643    -0.80100
O2462       O  0.66378886  0.40786023  0.95103703    -0.77600
C2463       C  0.77786816  0.45939239  0.92208586     0.83400
O2464       O  0.82215762  0.45415331  0.96125869    -0.78700
O2465       O  0.84728272  0.08964796  0.94061049    -0.80200
O2466       O  0.71601957  0.06505047  0.95997802    -0.80000
O2467       O  0.64694073  0.45122103  0.96396571    -0.78600
Zn2468     Zn  0.73065724  0.44044043  0.94929942     1.55700
O2469       O  0.74830613  0.08031210  0.93913257    -0.80000
Cd2470     Cd  0.71243876  0.00602471  0.96544857     1.59700
Cd2471     Cd  0.81178350  0.00916852  0.96585929     1.59600
O2472       O  0.72639914  0.00707837  0.98576087    -0.80000
O2473       O  0.75915148  0.00109821  0.95466075    -1.90500
Cd2474     Cd  0.78041765  0.03998448  0.93830985     1.59900
O2475       O  0.79164430  0.00580188  0.98647506    -0.80000
O2476       O  0.78533689  0.00045725  0.92204780    -0.78600
C2477       C  0.78644535  0.41519484  0.96110447     0.83900
C2478       C  0.63585256  0.41367069  0.95819196     0.83600
O2479       O  0.75603606  0.43203891  0.93171494    -0.77600
C2480       C  0.73026780  0.08966854  0.94933282     0.84400
O2481       O  0.74826862  0.41184174  0.96313918    -0.77700
C2482       C  0.75743177  0.00493778  0.99237342     0.84500
C2483       C  0.87657047  0.09796646  0.94987175     0.84800
O2484       O  0.86834217  0.07148833  0.96013975    -0.80100
O2485       O  0.91159449  0.67173716  0.61758124    -0.77600
C2486       C  0.84894025  0.55730994  0.58893847     0.83400
O2487       O  0.80051465  0.51390093  0.62830468    -0.78700
O2488       O  0.91069946  0.98912954  0.60725881    -0.80200
O2489       O  0.51754744  0.62048216  0.62655135    -0.80000
O2490       O  0.97232339  0.68930432  0.63035883    -0.78600
Zn2491     Zn  0.87753502  0.60486580  0.61610592     1.55700
O2492       O  0.00038344  0.58781656  0.60576717    -0.80000
Cd2493     Cd  0.96211364  0.62407948  0.63200712     1.59700
Cd2494     Cd  0.86620277  0.52457361  0.63272599     1.59600
O2495       O  0.94993180  0.61074287  0.65235197    -0.80000
O2496       O  0.91032460  0.57699815  0.62138047    -1.90500
Cd2497     Cd  0.92789245  0.55592613  0.60497672     1.59900
O2498       O  0.88378375  0.54519672  0.65330374    -0.80000
O2499       O  0.88315690  0.55078983  0.58876142    -0.78600
C2500       C  0.79733374  0.54965368  0.62818505     0.83900
C2501       C  0.94549970  0.69999251  0.62461883     0.83600
O2502       O  0.84300278  0.57856082  0.59866340    -0.77600
C2503       C  0.52783514  0.60597163  0.61595042     0.84400
O2504       O  0.83225488  0.58771892  0.63021340    -0.77700
C2505       C  0.91718492  0.57970160  0.65908302     0.84500
C2506       C  0.88999015  0.95990334  0.61655052     0.84800
O2507       O  0.87201752  0.96815402  0.62688920    -0.80100
O2508       O  0.99223412  0.58526315  0.73451577    -0.77600
C2509       C  0.88969361  0.96398181  0.70848038     0.83400
O2510       O  0.53494314  0.64989585  0.70482528    -0.78700
O2511       O  0.88543911  0.55343532  0.68077526    -0.80200
O2512       O  0.83522544  0.57661653  0.72736101    -0.80000
O2513       O  0.95264110  0.61381103  0.74432938    -0.78600
Zn2514     Zn  0.95768459  0.55899867  0.71707778     1.55700
O2515       O  0.81798484  0.54371297  0.70660882    -0.80000
Cd2516     Cd  0.90773686  0.60845862  0.72813163     1.59700
Cd2517     Cd  0.96936214  0.63943168  0.70039162     1.59600
O2518       O  0.92497846  0.67523252  0.72576426    -0.80000
O2519       O  0.92515558  0.58711281  0.71175509    -1.90500
Cd2520     Cd  0.87334337  0.54009480  0.70112308     1.59900
O2521       O  0.96372040  0.69602283  0.70614487    -0.80000
O2522       O  0.86303073  0.97482873  0.70271531    -0.78600
C2523       C  0.53803679  0.61409355  0.70498736     0.83900
C2524       C  0.98662570  0.60692199  0.74418410     0.83600
O2525       O  0.92348474  0.49208738  0.71558708    -0.77600
C2526       C  0.80773141  0.55832055  0.71719293     0.84400
O2527       O  0.50306415  0.57601823  0.70301196    -0.77700
C2528       C  0.94571905  0.70437274  0.71645506     0.84500
C2529       C  0.91827424  0.58436714  0.67404372     0.84800
O2530       O  0.95177408  0.61877461  0.67982286    -0.80100
O2531       O  0.82444861  0.73544260  0.61754123    -0.77600
C2532       C  0.93842989  0.78667651  0.58878065     0.83400
O2533       O  0.98264921  0.78140752  0.62783083    -0.78700
O2534       O  0.50785076  0.91705583  0.60721005    -0.80200
O2535       O  0.87653401  0.89229264  0.62669438    -0.80000
O2536       O  0.80776076  0.77839514  0.63072375    -0.78600
Zn2537     Zn  0.89131772  0.76791656  0.61596832     1.55700
O2538       O  0.90881316  0.90774917  0.60584627    -0.80000
Cd2539     Cd  0.87320536  0.83339217  0.63215821     1.59700
Cd2540     Cd  0.97256899  0.83657482  0.63238733     1.59600
O2541       O  0.88791354  0.83512686  0.65243932    -0.80000
O2542       O  0.91980642  0.82857206  0.62129001    -1.90500
Cd2543     Cd  0.94092473  0.86739038  0.60493300     1.59900
O2544       O  0.95326727  0.83403077  0.65300433    -0.80000
O2545       O  0.94569079  0.82767675  0.58868074    -0.78600
C2546       C  0.94685792  0.74251740  0.62775804     0.83900
C2547       C  0.79657052  0.74106605  0.62478349     0.83600
O2548       O  0.91682039  0.75945596  0.59845325    -0.77600
C2549       C  0.89077900  0.91701143  0.61607161     0.84400
O2550       O  0.90877656  0.73933180  0.62985035    -0.77700
C2551       C  0.91933430  0.83345841  0.65897946     0.84500
C2552       C  0.53722221  0.92523691  0.61643583     0.84800
O2553       O  0.52909248  0.89864413  0.62665601    -0.80100
O2554       O  0.91898094  0.90479306  0.73451103    -0.77600
C2555       C  0.53891656  0.92305135  0.70805039     0.83400
O2556       O  0.85262265  0.88259245  0.70518783    -0.78700
O2557       O  0.94731959  0.82890292  0.68048177    -0.80200
O2558       O  0.92689659  0.75658293  0.72710213    -0.80000
O2559       O  0.89005023  0.83654095  0.74426742    -0.78600
Zn2560     Zn  0.94418661  0.89626930  0.71693798     1.55700
O2561       O  0.95897592  0.77182505  0.70622696    -0.80000
Cd2562     Cd  0.89461858  0.79677144  0.72799971     1.59700
Cd2563     Cd  0.86276721  0.82748264  0.70057174     1.59600
O2564       O  0.82765884  0.74702115  0.72575936    -0.80000
O2565       O  0.91564514  0.83556297  0.71163416    -1.90500
Cd2566     Cd  0.96220129  0.83068775  0.70074734     1.59900
O2567       O  0.80629647  0.76537344  0.70632580    -0.80000
O2568       O  0.52770257  0.88565947  0.70214665    -0.78600
C2569       C  0.88837321  0.92151616  0.70526380     0.83900
C2570       C  0.89742528  0.87758013  0.74419163     0.83600
O2571       O  0.51103197  0.92876620  0.71525856    -0.77600
C2572       C  0.94487786  0.74724162  0.71688108     0.84400
O2573       O  0.92645863  0.92478660  0.70310604    -0.77700
C2574       C  0.79822329  0.73880357  0.71654940     0.84500
C2575       C  0.91589042  0.83059175  0.67395226     0.84800
O2576       O  0.88198174  0.83004775  0.67993738    -0.80100
O2577       O  0.76201005  0.58503987  0.61793450    -0.77600
C2578       C  0.71020010  0.64682462  0.58886800     0.83400
O2579       O  0.71505382  0.69658699  0.62786232    -0.78700
O2580       O  0.57992795  0.58570031  0.60718994    -0.80200
O2581       O  0.60454862  0.97943243  0.62675254    -0.80000
O2582       O  0.71854595  0.52431778  0.63066028    -0.78600
Zn2583     Zn  0.72920237  0.61908660  0.61616883     1.55700
O2584       O  0.58963265  0.99621527  0.60582380    -0.80000
Cd2585     Cd  0.66368898  0.53498397  0.63219964     1.59700
Cd2586     Cd  0.66027311  0.63112300  0.63246810     1.59600
O2587       O  0.66325537  0.54858092  0.65249851    -0.80000
O2588       O  0.66849271  0.58648163  0.62137961    -1.90500
Cd2589     Cd  0.62974250  0.56860407  0.60500469     1.59900
O2590       O  0.66420120  0.61495955  0.65308189    -0.80000
O2591       O  0.66937503  0.61281948  0.58875313    -0.78600
C2592       C  0.75404545  0.69990860  0.62794169     0.83900
C2593       C  0.75619519  0.55108844  0.62498254     0.83600
O2594       O  0.73744459  0.65287254  0.59858728    -0.77600
C2595       C  0.58010865  0.96892944  0.61605644     0.84400
O2596       O  0.75732030  0.66510863  0.63010291    -0.77700
C2597       C  0.66553902  0.58195619  0.65903631     0.84500
C2598       C  0.57151533  0.60670855  0.61641593     0.84800
O2599       O  0.59790659  0.62503362  0.62669610    -0.80100
O2600       O  0.59814220  0.51058474  0.73432554    -0.77600
C2601       C  0.57920071  0.61265222  0.70813033     0.83400
O2602       O  0.62049537  0.96741366  0.70506374    -0.78700
O2603       O  0.67214060  0.61539708  0.68052643    -0.80200
O2604       O  0.74577190  0.66787887  0.72719984    -0.80000
O2605       O  0.66594445  0.55119873  0.74427443    -0.78600
Zn2606     Zn  0.60631709  0.54466818  0.71680125     1.55700
O2607       O  0.73086284  0.68454550  0.70625614    -0.80000
Cd2608     Cd  0.70563506  0.59547550  0.72804170     1.59700
Cd2609     Cd  0.67536580  0.53294787  0.70054745     1.59600
O2610       O  0.75552194  0.57848392  0.72591969    -0.80000
O2611       O  0.66702316  0.57749686  0.71163714    -1.90500
Cd2612     Cd  0.67172007  0.62894778  0.70082887     1.59900
O2613       O  0.73770133  0.53914671  0.70641259    -0.76400
O2614       O  0.61678607  0.63945085  0.70242394    -0.78600
C2615       C  0.58152980  0.96415308  0.70491357     0.83900
C2616       C  0.62529500  0.51688975  0.74409654     0.83600
O2617       O  0.57346781  0.57869452  0.71516050    -0.77600
C2618       C  0.75531577  0.69510753  0.71695048     0.84400
O2619       O  0.57838787  0.99902445  0.70275290    -0.77700
C2620       C  0.76402281  0.55750733  0.71670686     0.84500
C2621       C  0.67008794  0.58213880  0.67398212     0.84800
O2622       O  0.67161197  0.54922533  0.67993169    -0.80100
O2623       O  0.59257716  0.76492134  0.88213500    -0.77600
C2624       C  0.65535675  0.71346474  0.91078149     0.83400
O2625       O  0.70441358  0.71877464  0.87157551    -0.78700
O2626       O  0.59392145  0.58334706  0.89239738    -0.80200
O2627       O  0.98732456  0.60813875  0.87298131    -0.80000
O2628       O  0.53259297  0.72202625  0.86906376    -0.78600
Zn2629     Zn  0.62693132  0.73237008  0.88360017     1.55700
O2630       O  0.50425544  0.59272172  0.89381616    -0.80000
Cd2631     Cd  0.54290697  0.66701262  0.86752753     1.59700
Cd2632     Cd  0.63897784  0.66361040  0.86709315     1.59600
O2633       O  0.55553114  0.66548063  0.84722651    -0.80000
O2634       O  0.59447512  0.67174150  0.87829194    -1.90500
Cd2635     Cd  0.57675267  0.63303518  0.89467595     1.59900
O2636       O  0.62181479  0.66626762  0.84648862    -0.80000
O2637       O  0.62132318  0.67263738  0.91092570    -0.78600
C2638       C  0.70752934  0.75768140  0.87166781     0.83900
C2639       C  0.55894376  0.75935191  0.87496694     0.83600
O2640       O  0.66119755  0.74065124  0.90107096    -0.77600
C2641       C  0.97689060  0.58344692  0.88360799     0.84400
O2642       O  0.67260403  0.76083482  0.86960850    -0.77700
C2643       C  0.58843353  0.66708723  0.84060123     0.84500
C2644       C  0.61496862  0.57502893  0.88316087     0.84800
O2645       O  0.63330335  0.60147640  0.87289713    -0.80100
O2646       O  0.51480943  0.59659785  0.76512337    -0.77600
C2647       C  0.61706941  0.57805846  0.79131251     0.83400
O2648       O  0.97156179  0.61855678  0.79465511    -0.78700
O2649       O  0.62053301  0.67196657  0.81900231    -0.80200
O2650       O  0.67145340  0.74483306  0.77240419    -0.80000
O2651       O  0.55418173  0.66478640  0.75533892    -0.78600
Zn2652     Zn  0.54909051  0.60496842  0.78260132     1.55700
O2653       O  0.68851011  0.72935057  0.79321463    -0.80000
Cd2654     Cd  0.59895881  0.70438128  0.77156479     1.59700
Cd2655     Cd  0.53695764  0.67367345  0.79916327     1.59600
O2656       O  0.58176891  0.75402714  0.77391211    -0.80000
O2657       O  0.58143063  0.66560390  0.78793313    -1.90500
Cd2658     Cd  0.63305780  0.67042753  0.79868948     1.59900
O2659       O  0.54255821  0.73583277  0.79344138    -0.80000
O2660       O  0.64343623  0.61544987  0.79718071    -0.78600
C2661       C  0.96843580  0.57964762  0.79452167     0.83900
C2662       C  0.52034995  0.62383947  0.75545821     0.83600
O2663       O  0.58344884  0.57242537  0.78412512    -0.77600
C2664       C  0.69885188  0.75410387  0.78260388     0.84400
O2665       O  0.00334168  0.57644592  0.79656443    -0.77700
C2666       C  0.56080235  0.76231594  0.78318162     0.84500
C2667       C  0.58757286  0.67020834  0.82563424     0.84800
O2668       O  0.55412428  0.67090840  0.81975289    -0.80100
O2669       O  0.74291477  0.82833591  0.88194025    -0.77600
C2670       C  0.79459502  0.94256685  0.91077614     0.83400
O2671       O  0.78954462  0.98648098  0.87159611    -0.78700
O2672       O  0.92473901  0.51129911  0.89242037    -0.80200
O2673       O  0.90021214  0.88005339  0.87306351    -0.80000
O2674       O  0.78623389  0.81110204  0.86912595    -0.78600
Zn2675     Zn  0.77566338  0.89520009  0.88357983     1.55700
O2676       O  0.91552436  0.91245702  0.89389027    -0.80000
Cd2677     Cd  0.84116836  0.87648945  0.86757892     1.59700
Cd2678     Cd  0.84452092  0.97593685  0.86706128     1.59600
O2679       O  0.84205200  0.89015445  0.84725176    -0.80000
O2680       O  0.83634836  0.92335482  0.87830055    -1.90500
Cd2681     Cd  0.87508577  0.94448768  0.89468112     1.59900
O2682       O  0.84098628  0.95549577  0.84646066    -0.80000
O2683       O  0.83549266  0.94954774  0.91088949    -0.78600
C2684       C  0.75061205  0.95073758  0.87165779     0.83900
C2685       C  0.74866211  0.80022757  0.87485535     0.83600
O2686       O  0.76731347  0.92102038  0.90109945    -0.77600
C2687       C  0.92487088  0.89436543  0.88370238     0.84400
O2688       O  0.74743309  0.91267190  0.86958000    -0.77700
C2689       C  0.83989925  0.92111584  0.84060372     0.84500
C2690       C  0.93317743  0.54057529  0.88315050     0.84800
O2691       O  0.90683774  0.53237492  0.87284415    -0.80100
O2692       O  0.90816911  0.91589908  0.76520001    -0.77600
C2693       C  0.92725961  0.53714001  0.79134417     0.83400
O2694       O  0.88602633  0.85084497  0.79473572    -0.78700
O2695       O  0.83379335  0.94753575  0.81899110    -0.80200
O2696       O  0.76021638  0.92516046  0.77236152    -0.80000
O2697       O  0.84012260  0.88796619  0.75536057    -0.78600
Zn2698     Zn  0.90002029  0.94205876  0.78268697     1.55700
O2699       O  0.77562568  0.95758694  0.79318372    -0.80000
Cd2700     Cd  0.80062885  0.89311324  0.77157127     1.59700
Cd2701     Cd  0.83110734  0.86156459  0.79920703     1.59600
O2702       O  0.75094879  0.82631676  0.77381634    -0.80000
O2703       O  0.83936480  0.91414694  0.78795364    -1.90500
Cd2704     Cd  0.83467296  0.96111185  0.79865509     1.59900
O2705       O  0.76882281  0.80519734  0.79339035    -0.80000
O2706       O  0.88971228  0.52639537  0.79706897    -0.78600
C2707       C  0.92496379  0.88657347  0.79470176     0.83900
C2708       C  0.88087444  0.89455523  0.75550467     0.83600
O2709       O  0.93292089  0.50894638  0.78427345    -0.77600
C2710       C  0.75089747  0.94323415  0.78255900     0.84400
O2711       O  0.92811036  0.92463863  0.79674862    -0.77700
C2712       C  0.74251316  0.79701615  0.78307748     0.84500
C2713       C  0.83580263  0.91651115  0.82564739     0.84800
O2714       O  0.83458918  0.88205824  0.81979856    -0.80100
O2715       O  0.68010261  0.91566772  0.88201654    -0.77600
C2716       C  0.56631807  0.85350289  0.91093046     0.83400
O2717       O  0.52180826  0.80371753  0.87184159    -0.78700
O2718       O  0.99718372  0.91464717  0.89249686    -0.80200
O2719       O  0.62809995  0.52075147  0.87292220    -0.80000
O2720       O  0.69696314  0.97567762  0.86898667    -0.78600
Zn2721     Zn  0.61322164  0.88140590  0.88367092     1.55700
O2722       O  0.59632762  0.50410186  0.89383938    -0.80000
Cd2723     Cd  0.63150929  0.96514404  0.86748531     1.59700
Cd2724     Cd  0.53210680  0.86906151  0.86727063     1.59600
O2725       O  0.61714034  0.95180320  0.84719345    -0.80000
O2726       O  0.58492376  0.91375805  0.87835935    -1.90500
Cd2727     Cd  0.56405748  0.93168926  0.89472772     1.59900
O2728       O  0.55171016  0.88545888  0.84663857    -0.80000
O2729       O  0.55938663  0.88745063  0.91102121    -0.78600
C2730       C  0.55756109  0.80052712  0.87185625     0.83900
C2731       C  0.70805633  0.94932166  0.87483711     0.83600
O2732       O  0.58762079  0.84754258  0.90122887    -0.77600
C2733       C  0.61413728  0.53132564  0.88359308     0.84400
O2734       O  0.59564764  0.83539085  0.86977049    -0.77700
C2735       C  0.58585475  0.91858633  0.84066113     0.84500
C2736       C  0.96774958  0.89350963  0.88328514     0.84800
O2737       O  0.97577121  0.87499170  0.87304962    -0.80100
O2738       O  0.58775287  0.98966993  0.76519812    -0.77600
C2739       C  0.96756395  0.88801462  0.79156578     0.83400
O2740       O  0.65407713  0.53360234  0.79449019    -0.78700
O2741       O  0.55843093  0.88553910  0.81916452    -0.80200
O2742       O  0.57937127  0.83324976  0.77253593    -0.80000
O2743       O  0.61566096  0.94958031  0.75532856    -0.78600
Zn2744     Zn  0.56246553  0.95600512  0.78278007     1.55700
O2745       O  0.54759965  0.81652564  0.79345245    -0.80000
Cd2746     Cd  0.61151323  0.90563511  0.77163399     1.59700
Cd2747     Cd  0.64359087  0.96821399  0.79909159     1.59600
O2748       O  0.67852048  0.92293021  0.77379263    -0.80000
O2749       O  0.59070328  0.92353660  0.78801958    -1.90500
Cd2750     Cd  0.54406310  0.87209913  0.79887457     1.59900
O2751       O  0.69990403  0.96231235  0.79328860    -0.80000
O2752       O  0.97852591  0.86144118  0.79734068    -0.78600
C2753       C  0.61839076  0.53689789  0.79450155     0.83900
C2754       C  0.60875880  0.98354520  0.75544500     0.83600
O2755       O  0.49566007  0.92186393  0.78448353    -0.77600
C2756       C  0.56159140  0.80600108  0.78277695     0.84400
O2757       O  0.58030502  0.50212052  0.79666586    -0.77700
C2758       C  0.70796309  0.94398362  0.78301222     0.84500
C2759       C  0.58975457  0.91873027  0.82569710     0.84800
O2760       O  0.62394770  0.95182096  0.81972225    -0.80100
O2761       O  0.84016004  0.74210430  0.54855565    -0.77600
C2762       C  0.72681750  0.68020029  0.57752712     0.83400
O2763       O  0.68186078  0.63052512  0.53843514    -0.78700
O2764       O  0.65741411  0.74114163  0.55922997    -0.80200
O2765       O  0.78835666  0.84761827  0.53965897    -0.80000
O2766       O  0.85735590  0.80261272  0.53572946    -0.78600
Zn2767     Zn  0.77334685  0.70797933  0.55022258     1.55700
O2768       O  0.75646908  0.83076874  0.56055691    -0.80000
Cd2769     Cd  0.79188214  0.79207708  0.53418851     1.59700
Cd2770     Cd  0.69238297  0.69598255  0.53386585     1.59600
O2771       O  0.77771854  0.77892628  0.51388242    -0.80000
O2772       O  0.74518464  0.74053891  0.54499300    -1.90500
Cd2773     Cd  0.72435831  0.75836126  0.56139529     1.59900
O2774       O  0.71226786  0.71259905  0.51323957    -0.80000
O2775       O  0.71998551  0.71420764  0.57765882    -0.78600
C2776       C  0.71756578  0.62725650  0.53843298     0.83900
C2777       C  0.86827691  0.77598125  0.54148638     0.83600
O2778       O  0.74788029  0.67411947  0.56777983    -0.77600
C2779       C  0.77430859  0.85808521  0.55033338     0.84400
O2780       O  0.75563018  0.66206274  0.53627916    -0.77700
C2781       C  0.74651219  0.74577970  0.50730639     0.84500
C2782       C  0.62800856  0.72018836  0.54999560     0.84800
O2783       O  0.63608585  0.70193437  0.53969991    -0.80100
O2784       O  0.74940002  0.81761800  0.43174454    -0.77600
C2785       C  0.62893283  0.71567091  0.45814198     0.83400
O2786       O  0.81508607  0.86131102  0.46121616    -0.78700
O2787       O  0.71956746  0.71285407  0.48576410    -0.80200
O2788       O  0.74116433  0.66120934  0.43911852    -0.80000
O2789       O  0.77825927  0.77819545  0.42200598    -0.78600
Zn2790     Zn  0.72374583  0.78362254  0.44928857     1.55700
O2791       O  0.70899924  0.64434910  0.45998265    -0.80000
Cd2792     Cd  0.77327517  0.73365705  0.43826542     1.59700
Cd2793     Cd  0.80475472  0.79595715  0.46579336     1.59600
O2794       O  0.84012654  0.75079424  0.44057414    -0.80000
O2795       O  0.75211877  0.75134674  0.45462641    -1.90500
Cd2796     Cd  0.70547467  0.69982825  0.46545115     1.59900
O2797       O  0.86124346  0.79016541  0.46007465    -0.80000
O2798       O  0.64002496  0.68926574  0.46395841    -0.78600
C2799       C  0.77933375  0.86449987  0.46114150     0.83900
C2800       C  0.77107226  0.81198406  0.42208692     0.83600
O2801       O  0.65685631  0.74933131  0.45095843    -0.77600
C2802       C  0.72318771  0.63389563  0.44933960     0.84400
O2803       O  0.74121650  0.82962794  0.46318488    -0.77700
C2804       C  0.86943121  0.77182361  0.44982547     0.84500
C2805       C  0.75064876  0.74608917  0.49234220     0.84800
O2806       O  0.78479623  0.77936352  0.48640905    -0.80100
O2807       O  0.75260597  0.59182132  0.54881715    -0.77600
C2808       C  0.81532986  0.54040859  0.57763595     0.83400
O2809       O  0.86455686  0.54557383  0.53849243    -0.78700
O2810       O  0.75410385  0.91008613  0.55918994    -0.80200
O2811       O  0.64757203  0.93481012  0.53975829    -0.80000
O2812       O  0.69256754  0.54867907  0.53579749    -0.78600
Zn2813     Zn  0.78692498  0.55924022  0.55042811     1.55700
O2814       O  0.66446486  0.91949696  0.56061729    -0.80000
Cd2815     Cd  0.70308102  0.99376748  0.53430709     1.59700
Cd2816     Cd  0.79918883  0.99050326  0.53394446     1.59600
O2817       O  0.71599200  0.99249331  0.51400614    -0.80000
O2818       O  0.75461018  0.49858780  0.54511766    -1.90500
Cd2819     Cd  0.73694163  0.95980921  0.56148940     1.59900
O2820       O  0.78238327  0.99350010  0.51332962    -0.80000
O2821       O  0.78148655  0.99946865  0.57774576    -0.78600
C2822       C  0.86769613  0.58448906  0.53856989     0.83900
C2823       C  0.71894550  0.58612389  0.54163789     0.83600
O2824       O  0.82101626  0.56762471  0.56794791    -0.77600
C2825       C  0.63713597  0.91016272  0.55039701     0.84400
O2826       O  0.83280309  0.58768531  0.53649316    -0.77700
C2827       C  0.74906593  0.99435081  0.50741149     0.84500
C2828       C  0.77512257  0.90179296  0.54993580     0.84800
O2829       O  0.79345317  0.92829935  0.53968514    -0.80100
O2830       O  0.67573820  0.92473423  0.43201573    -0.77600
C2831       C  0.77801092  0.90571894  0.45804305     0.83400
O2832       O  0.63277816  0.94657623  0.46148724    -0.78700
O2833       O  0.78141427  0.49935230  0.48583949    -0.80200
O2834       O  0.83301903  0.57244285  0.43922313    -0.80000
O2835       O  0.71612999  0.49258729  0.42210164    -0.78600
Zn2836     Zn  0.71010074  0.93286400  0.44946680     1.55700
O2837       O  0.84983487  0.55709363  0.46008411    -0.80000
Cd2838     Cd  0.76056949  0.53213082  0.43835702     1.59700
Cd2839     Cd  0.69826468  0.00168809  0.46593035     1.59600
O2840       O  0.74342910  0.58184354  0.44057146    -0.80000
O2841       O  0.74273616  0.99347052  0.45475139    -1.90500
Cd2842     Cd  0.79423738  0.99811520  0.46552589     1.59900
O2843       O  0.70404767  0.56381951  0.46007197    -0.80000
O2844       O  0.80445586  0.94304178  0.46393583    -0.78600
C2845       C  0.62965836  0.90767003  0.46146242     0.83900
C2846       C  0.68185558  0.95191135  0.42227446     0.83600
O2847       O  0.74435803  0.90020364  0.45089318    -0.77600
C2848       C  0.86031477  0.58177474  0.44944929     0.84400
O2849       O  0.66460959  0.90456562  0.46351932    -0.77700
C2850       C  0.72238242  0.59020935  0.44979474     0.84500
C2851       C  0.74848357  0.49777507  0.49244473     0.84800
O2852       O  0.71527442  0.49886559  0.48653726    -0.80100
O2853       O  0.90320534  0.65517519  0.54881941    -0.77600
C2854       C  0.95508197  0.76971241  0.57749412     0.83400
O2855       O  0.94980222  0.81321176  0.53832535    -0.78700
O2856       O  0.58508915  0.83795422  0.55919235    -0.80200
O2857       O  0.56035170  0.70662318  0.53984369    -0.80000
O2858       O  0.94634370  0.63785218  0.53594494    -0.78600
Zn2859     Zn  0.93599058  0.72207495  0.55035002     1.55700
O2860       O  0.57581899  0.73909164  0.56065950    -0.80000
Cd2861     Cd  0.00136077  0.70315712  0.53437798     1.59700
Cd2862     Cd  0.00484001  0.80269161  0.53386698     1.59600
O2863       O  0.50248879  0.71695956  0.51405946    -0.80000
O2864       O  0.99665462  0.75008710  0.54508902    -1.90500
Cd2865     Cd  0.53540611  0.77116249  0.56146093     1.59900
O2866       O  0.50166153  0.78242904  0.51328617    -0.80000
O2867       O  0.49586934  0.77639148  0.57765020    -0.78600
C2868       C  0.91088763  0.77744971  0.53835181     0.83900
C2869       C  0.90885807  0.62702257  0.54172463     0.83600
O2870       O  0.92780134  0.74824879  0.56780991    -0.77600
C2871       C  0.58509810  0.72098005  0.55046131     0.84400
O2872       O  0.90778422  0.73940233  0.53629836    -0.77700
C2873       C  0.50060847  0.74808498  0.50742139     0.84500
C2874       C  0.59345418  0.86727762  0.54994386     0.84800
O2875       O  0.56706296  0.85912448  0.53965746    -0.80100
O2876       O  0.57001668  0.74465663  0.43201585    -0.77600
C2877       C  0.58853615  0.86508095  0.45831173     0.83400
O2878       O  0.54748031  0.67862824  0.46143061    -0.78700
O2879       O  0.99489175  0.77484357  0.48583922    -0.80200
O2880       O  0.92172879  0.75298170  0.43922930    -0.80000
O2881       O  0.00189806  0.71623581  0.42218871    -0.78600
Zn2882     Zn  0.56156121  0.77012893  0.44956863     1.55700
O2883       O  0.93695993  0.78529365  0.46006752    -0.80000
Cd2884     Cd  0.96211803  0.72090460  0.43841519     1.59700
Cd2885     Cd  0.99258199  0.68925980  0.46599139     1.59600
O2886       O  0.91244979  0.65399856  0.44064665    -0.80000
O2887       O  0.50082424  0.74196144  0.45479918    -1.90500
Cd2888     Cd  0.99599360  0.78880490  0.46553613     1.59900
O2889       O  0.93031592  0.63286622  0.46021608    -0.80000
O2890       O  0.55093599  0.85423363  0.46401905    -0.78600
C2891       C  0.58644596  0.71432060  0.46138200     0.83900
C2892       C  0.54282554  0.72329208  0.42230625     0.83600
O2893       O  0.59431733  0.83693082  0.45126553    -0.77600
C2894       C  0.91233767  0.77102092  0.44942177     0.84400
O2895       O  0.58971231  0.75239430  0.46352534    -0.77700
C2896       C  0.90399841  0.62468510  0.44991015     0.84500
C2897       C  0.99686122  0.74374556  0.49246566     0.84800
O2898       O  0.99586877  0.70944323  0.48659001    -0.80100
O2899       O  0.99174961  0.56951631  0.28440244    -0.77600
C2900       C  0.60635817  0.62153099  0.25564308     0.83400
O2901       O  0.64993329  0.61602044  0.29476303    -0.78700
O2902       O  0.67450738  0.75142470  0.27396073    -0.80200
O2903       O  0.54348517  0.72669236  0.29338028    -0.80000
O2904       O  0.97459494  0.61267225  0.29732976    -0.78600
Zn2905     Zn  0.55869270  0.60225214  0.28280716     1.55700
O2906       O  0.57553980  0.74183873  0.27250326    -0.80000
Cd2907     Cd  0.53997688  0.66765375  0.29888192     1.59700
Cd2908     Cd  0.63947042  0.67104626  0.29928363     1.59600
O2909       O  0.55379914  0.66842035  0.31920814    -0.80000
O2910       O  0.58677772  0.66288058  0.28811157    -1.90500
Cd2911     Cd  0.60776189  0.70164179  0.27173691     1.59900
O2912       O  0.61918632  0.66740141  0.31989317    -0.80000
O2913       O  0.61305958  0.66230966  0.25552782    -0.78600
C2914       C  0.61418170  0.57709330  0.29475572     0.83900
C2915       C  0.96367002  0.57518389  0.29153612     0.83600
O2916       O  0.58482771  0.59415100  0.26530277    -0.77600
C2917       C  0.55759869  0.75124949  0.28271395     0.84400
O2918       O  0.57610812  0.57394734  0.29680958    -0.77700
C2919       C  0.58483151  0.66620666  0.32580237     0.84500
C2920       C  0.70392020  0.75978617  0.28317808     0.84800
O2921       O  0.69585904  0.73337073  0.29345789    -0.80100
O2922       O  0.58125994  0.73399145  0.40132919    -0.77600
C2923       C  0.70174627  0.75265155  0.37487676     0.83400
O2924       O  0.51534187  0.71188826  0.37189328    -0.78700
O2925       O  0.61135289  0.65955087  0.34733927    -0.80200
O2926       O  0.58972203  0.58602899  0.39399022    -0.80000
O2927       O  0.55256721  0.66571171  0.41105963    -0.78600
Zn2928     Zn  0.60685743  0.72572152  0.38375722     1.55700
O2929       O  0.62169168  0.60115833  0.37309960    -0.80000
Cd2930     Cd  0.55747814  0.62620527  0.39481202     1.59700
Cd2931     Cd  0.52583230  0.65694238  0.36730115     1.59600
O2932       O  0.99062690  0.57642613  0.39257059    -0.80000
O2933       O  0.57855227  0.66505817  0.37845368    -1.90500
Cd2934     Cd  0.62526387  0.66022603  0.36764713     1.59900
O2935       O  0.96940938  0.59457460  0.37306638    -0.80000
O2936       O  0.69074539  0.71505721  0.36914516    -0.78600
C2937       C  0.55105431  0.75084491  0.37192348     0.83900
C2938       C  0.55966814  0.70664259  0.41098670     0.83600
O2939       O  0.67374982  0.75844591  0.38200893    -0.77600
C2940       C  0.60760968  0.57661036  0.38376590     0.84400
O2941       O  0.58917117  0.75410110  0.36985615    -0.77700
C2942       C  0.96126532  0.56810150  0.38333365     0.84500
C2943       C  0.58035818  0.66186382  0.34075708     0.84800
O2944       O  0.54604607  0.66072209  0.34667777    -0.80100
O2945       O  0.57903744  0.00648844  0.28448573    -0.77600
C2946       C  0.51711792  0.89330067  0.25553940     0.83400
O2947       O  0.96717027  0.84819800  0.29457679    -0.78700
O2948       O  0.57785273  0.82354136  0.27390197    -0.80200
O2949       O  0.68424702  0.95456444  0.29350021    -0.80000
O2950       O  0.63914190  0.52344180  0.29747769    -0.78600
Zn2951     Zn  0.54485376  0.93968719  0.28284077     1.55700
O2952       O  0.66751838  0.92270428  0.27259697    -0.80000
Cd2953     Cd  0.62863258  0.95795639  0.29895312     1.59700
Cd2954     Cd  0.53250228  0.85849526  0.29916197     1.59600
O2955       O  0.61536577  0.94334757  0.31923117    -0.80000
O2956       O  0.57722934  0.91135815  0.28808977    -1.90500
Cd2957     Cd  0.59509417  0.89051410  0.27170623     1.59900
O2958       O  0.54904209  0.87788202  0.31979516    -0.80000
O2959       O  0.55101904  0.88628891  0.25542092    -0.78600
C2960       C  0.96401031  0.88395777  0.29457446     0.83900
C2961       C  0.61274122  0.53449593  0.29163248     0.83600
O2962       O  0.51109318  0.91439299  0.26528463    -0.77600
C2963       C  0.69478435  0.94055334  0.28283314     0.84400
O2964       O  0.99885348  0.92198191  0.29674674    -0.77700
C2965       C  0.58225241  0.91195615  0.32576888     0.84500
C2966       C  0.55675310  0.79412170  0.28312338     0.84800
O2967       O  0.53832468  0.80217128  0.29337200    -0.80100
O2968       O  0.65434304  0.91407278  0.40122472    -0.77600
C2969       C  0.55238414  0.79339153  0.37503325     0.83400
O2970       O  0.69786432  0.97947658  0.37184743    -0.78700
O2971       O  0.54957357  0.88425980  0.34728649    -0.80200
O2972       O  0.99759897  0.90532802  0.39389321    -0.80000
O2973       O  0.61433174  0.94206598  0.41108834    -0.78600
Zn2974     Zn  0.62025168  0.88828156  0.38372992     1.55700
O2975       O  0.98085842  0.87322092  0.37302208    -0.80000
Cd2976     Cd  0.57003474  0.93742850  0.39480457     1.59700
Cd2977     Cd  0.63253305  0.96925687  0.36731753     1.59600
O2978       O  0.58728149  0.50433248  0.39256563    -0.80000
O2979       O  0.58785208  0.91650882  0.37842936    -1.90500
Cd2980     Cd  0.53646055  0.86982540  0.36758204     1.59900
O2981       O  0.62683223  0.52565954  0.37309868    -0.80000
O2982       O  0.52608603  0.80442422  0.36911141    -0.78600
C2983       C  0.70094874  0.94367334  0.37186804     0.83900
C2984       C  0.64837054  0.93526653  0.41095223     0.83600
O2985       O  0.58596635  0.82141239  0.38222163    -0.77600
C2986       C  0.97033687  0.88737533  0.38365954     0.84400
O2987       O  0.66602367  0.90564801  0.36976656    -0.77700
C2988       C  0.60841520  0.53373331  0.38334618     0.84500
C2989       C  0.58264990  0.91564956  0.34073767     0.84800
O2990       O  0.61585625  0.94975455  0.34670125    -0.80100
O2991       O  0.92866506  0.91927502  0.28430996    -0.77600
C2992       C  0.87722118  0.98219287  0.25556272     0.83400
O2993       O  0.88219013  0.53083569  0.29483437    -0.78700
O2994       O  0.74693096  0.92060027  0.27396236    -0.80200
O2995       O  0.77159362  0.81382133  0.29329932    -0.80000
O2996       O  0.88539793  0.85877827  0.29714837    -0.78600
Zn2997     Zn  0.89601006  0.95351589  0.28274517     1.55700
O2998       O  0.75607770  0.83087958  0.27249715    -0.80000
Cd2999     Cd  0.83053671  0.86926692  0.29872116     1.59700
Cd3000     Cd  0.82712573  0.96528908  0.29930336     1.59600
O3001       O  0.82922559  0.88166651  0.31903786    -0.80000
O3002       O  0.83532396  0.92098013  0.28802148    -1.90500
Cd3003     Cd  0.79660261  0.90342005  0.27163537     1.59900
O3004       O  0.83001649  0.94792642  0.31988755    -0.80000
O3005       O  0.83632647  0.94824072  0.25541423    -0.78600
C3006       C  0.92112956  0.53401384  0.29471845     0.83900
C3007       C  0.92291429  0.88540681  0.29138869     0.83600
O3008       O  0.90439572  0.98785632  0.26526468    -0.77600
C3009       C  0.74682007  0.80347234  0.28269559     0.84400
O3010       O  0.92433193  0.49911933  0.29676050    -0.77700
C3011       C  0.83093024  0.91450721  0.32571745     0.84500
C3012       C  0.73850958  0.94140308  0.28325277     0.84800
O3013       O  0.76488781  0.95952942  0.29354544    -0.80100
O3014       O  0.76070455  0.83974402  0.40106061    -0.77600
C3015       C  0.74206104  0.94219124  0.37500187     0.83400
O3016       O  0.78320652  0.79701587  0.37153295    -0.78700
O3017       O  0.83590527  0.94631193  0.34736528    -0.80200
O3018       O  0.90896477  0.99695476  0.39396272    -0.80000
O3019       O  0.82867567  0.87967023  0.41095324    -0.78600
Zn3020     Zn  0.76906798  0.87409646  0.38357780     1.55700
O3021       O  0.89360462  0.51411693  0.37315665    -0.80000
Cd3022     Cd  0.86841700  0.92444007  0.39475955     1.59700
Cd3023     Cd  0.83814314  0.86266242  0.36707396     1.59600
O3024       O  0.91809654  0.90726900  0.39248740    -0.80000
O3025       O  0.82979261  0.90687750  0.37835597    -1.90500
Cd3026     Cd  0.83459597  0.95866617  0.36769367     1.59900
O3027       O  0.90037771  0.86851492  0.37287488    -0.80000
O3028       O  0.77963483  0.96903145  0.36930124    -0.78600
C3029       C  0.74424215  0.79376968  0.37161779     0.83900
C3030       C  0.78786896  0.84559007  0.41078473     0.83600
O3031       O  0.73630394  0.90818120  0.38200421    -0.77600
C3032       C  0.91832218  0.52441319  0.38377607     0.84400
O3033       O  0.74101104  0.82861490  0.36951437    -0.77700
C3034       C  0.92662960  0.88655019  0.38319859     0.84500
C3035       C  0.83426894  0.91351050  0.34067867     0.84800
O3036       O  0.83525201  0.88011176  0.34649990    -0.80100
O3037       O  0.92188191  0.92889238  0.21530924    -0.77600
C3038       C  0.98375913  0.87685289  0.24419642     0.83400
O3039       O  0.53346162  0.88208375  0.20520772    -0.78700
O3040       O  0.92227689  0.74684333  0.22592956    -0.80200
O3041       O  0.81630403  0.77168139  0.20627123    -0.80000
O3042       O  0.86156142  0.88579334  0.20238158    -0.78600
Zn3043     Zn  0.95599724  0.89609546  0.21693898     1.55700
O3044       O  0.83292601  0.75675672  0.22722173    -0.80000
Cd3045     Cd  0.87197731  0.83077938  0.20082938     1.59700
Cd3046     Cd  0.96802771  0.82720190  0.20064095     1.59600
O3047       O  0.88563709  0.83017932  0.18053260    -0.80000
O3048       O  0.92334161  0.83545227  0.21168988    -1.90500
Cd3049     Cd  0.90530094  0.79672749  0.22806908     1.59900
O3050       O  0.95189439  0.83085349  0.18000879    -0.80000
O3051       O  0.94953210  0.83616785  0.24433000    -0.78600
C3052       C  0.53673910  0.92105138  0.20511346     0.83900
C3053       C  0.88812954  0.92326227  0.20818641     0.83600
O3054       O  0.98996367  0.90413179  0.23447456    -0.77600
C3055       C  0.80571597  0.74723944  0.21696941     0.84400
O3056       O  0.50189326  0.92427736  0.20297202    -0.77700
C3057       C  0.91895842  0.83222725  0.17402039     0.84500
C3058       C  0.94348949  0.73850361  0.21675486     0.84800
O3059       O  0.96198887  0.76493403  0.20649329    -0.80100
O3060       O  0.84870624  0.76447038  0.09852255    -0.77600
C3061       C  0.95052450  0.74580815  0.12494183     0.83400
O3062       O  0.80479468  0.78634270  0.12783925    -0.78700
O3063       O  0.95261659  0.83884457  0.15255937    -0.80200
O3064       O  0.50517061  0.91215539  0.10584479    -0.80000
O3065       O  0.88843910  0.83268076  0.08876459    -0.78600
Zn3066     Zn  0.88258904  0.77271099  0.11607751     1.55700
O3067       O  0.52183840  0.89720800  0.12678798    -0.80000
Cd3068     Cd  0.93277491  0.87215798  0.10501836     1.59700
Cd3069     Cd  0.87007663  0.84138450  0.13243647     1.59600
O3070       O  0.91580113  0.92202127  0.10724387    -0.80000
O3071       O  0.91488079  0.83334534  0.12137919    -1.90500
Cd3072     Cd  0.96625432  0.83816688  0.13226581     1.59900
O3073       O  0.87602346  0.90370099  0.12666914    -0.80000
O3074       O  0.97685670  0.78326271  0.13078823    -0.78600
C3075       C  0.80163813  0.74742011  0.12788718     0.83900
C3076       C  0.85455498  0.79179256  0.08884939     0.83600
O3077       O  0.91691301  0.74012102  0.11773630    -0.77600
C3078       C  0.53241188  0.92163364  0.11608875     0.84400
O3079       O  0.83654058  0.74425017  0.12998223    -0.77700
C3080       C  0.89459395  0.93027660  0.11644195     0.84500
C3081       C  0.91918159  0.83655988  0.15906545     0.84800
O3082       O  0.88613918  0.83770327  0.15307000    -0.80100
O3083       O  0.57223111  0.99152131  0.21545587    -0.77600
C3084       C  0.62339685  0.60505716  0.24433019     0.83400
O3085       O  0.61841358  0.64976539  0.20518914    -0.78700
O3086       O  0.75378745  0.67503446  0.22583195    -0.80200
O3087       O  0.72920738  0.54350229  0.20641436    -0.80000
O3088       O  0.61528374  0.97470972  0.20236744    -0.78600
Zn3089     Zn  0.60475926  0.55832116  0.21708785     1.55700
O3090       O  0.74472783  0.57604730  0.22722302    -0.80000
Cd3091     Cd  0.67029489  0.54015121  0.20093253     1.59700
Cd3092     Cd  0.67348263  0.63952404  0.20060292     1.59600
O3093       O  0.67209811  0.55470798  0.18064230    -0.80000
O3094       O  0.66544016  0.58683005  0.21175719    -1.90500
Cd3095     Cd  0.70426061  0.60804244  0.22811732     1.59900
O3096       O  0.67095175  0.62002202  0.17998923    -0.80000
O3097       O  0.66446673  0.61250298  0.24440217    -0.78600
C3098       C  0.57949631  0.61401654  0.20534158     0.83900
C3099       C  0.57789107  0.96359244  0.20825734     0.83600
O3100       O  0.59620344  0.58351758  0.23464560    -0.77600
C3101       C  0.75396338  0.55788546  0.21702735     0.84400
O3102       O  0.57620825  0.57590470  0.20323734    -0.77700
C3103       C  0.67043981  0.58605056  0.17405701     0.84500
C3104       C  0.76204029  0.70432914  0.21657465     0.84800
O3105       O  0.73555518  0.69609280  0.20631862    -0.80100
O3106       O  0.74196654  0.58433675  0.09859423    -0.77600
C3107       C  0.76047812  0.70483591  0.12479913     0.83400
O3108       O  0.71987061  0.51880462  0.12803194    -0.78700
O3109       O  0.66623150  0.61390199  0.15249514    -0.80200
O3110       O  0.59368842  0.59284547  0.10591894    -0.80000
O3111       O  0.67394007  0.55611382  0.08873046    -0.78600
Zn3112     Zn  0.73348899  0.60999336  0.11609189     1.55700
O3113       O  0.60923232  0.62525802  0.12674507    -0.80000
Cd3114     Cd  0.63411210  0.56075228  0.10499222     1.59700
Cd3115     Cd  0.66468158  0.52899567  0.13253227     1.59600
O3116       O  0.58444367  0.99382638  0.10724366    -0.80000
O3117       O  0.67281134  0.58171679  0.12138043    -1.90500
Cd3118     Cd  0.66807605  0.62844665  0.13220513     1.59900
O3119       O  0.60261477  0.97258095  0.12673716    -0.80000
O3120       O  0.72316362  0.69378557  0.13072905    -0.78600
C3121       C  0.75875132  0.55461474  0.12796228     0.83900
C3122       C  0.71484417  0.56307322  0.08886507     0.83600
O3123       O  0.76605459  0.67683854  0.11760548    -0.77600
C3124       C  0.58446928  0.61096385  0.11613292     0.84400
O3125       O  0.76185510  0.59263953  0.13006771    -0.77700
C3126       C  0.57613815  0.96447202  0.11648495     0.84500
C3127       C  0.66769041  0.58245780  0.15908180     0.84800
O3128       O  0.66703587  0.54841564  0.15314982    -0.80100
O3129       O  0.00886209  0.57887197  0.21562160    -0.77600
C3130       C  0.89416021  0.51591208  0.24427836     0.83400
O3131       O  0.85102131  0.96767025  0.20491129    -0.78700
O3132       O  0.82601320  0.57774965  0.22588996    -0.80200
O3133       O  0.95736600  0.68459319  0.20665331    -0.80000
O3134       O  0.52632113  0.63955962  0.20283963    -0.78600
Zn3135     Zn  0.94196959  0.54475189  0.21713844     1.55700
O3136       O  0.92462166  0.66741413  0.22743012    -0.80000
Cd3137     Cd  0.96106534  0.62924283  0.20119906     1.59700
Cd3138     Cd  0.86167659  0.53331934  0.20047308     1.59600
O3139       O  0.94789053  0.61702407  0.18084021    -0.80000
O3140       O  0.91401998  0.57744404  0.21183683    -1.90500
Cd3141     Cd  0.89278669  0.59491477  0.22823033     1.59900
O3142       O  0.88246682  0.55076990  0.17990198    -0.80000
O3143       O  0.88744667  0.55000867  0.24443953    -0.78600
C3144       C  0.88676799  0.96446753  0.20504262     0.83900
C3145       C  0.53705177  0.61274267  0.20855791     0.83600
O3146       O  0.91566144  0.51018557  0.23458409    -0.77600
C3147       C  0.94279444  0.69485768  0.21724491     0.84400
O3148       O  0.92487629  0.99938647  0.20306052    -0.77700
C3149       C  0.91696827  0.58415160  0.17411592     0.84500
C3150       C  0.79686063  0.55708719  0.21657628     0.84800
O3151       O  0.80518835  0.53913575  0.20624723    -0.80100
O3152       O  0.92249992  0.65854378  0.09865377    -0.77600
C3153       C  0.80132822  0.55609417  0.12478390     0.83400
O3154       O  0.98759453  0.70138496  0.12828431    -0.78700
O3155       O  0.89080137  0.55214201  0.15244564    -0.80200
O3156       O  0.91353117  0.50145575  0.10583277    -0.80000
O3157       O  0.95066439  0.61863227  0.08882377    -0.78600
Zn3158     Zn  0.89642167  0.62421786  0.11615633     1.55700
O3159       O  0.88105472  0.98431011  0.12664464    -0.80000
Cd3160     Cd  0.94552522  0.57394279  0.10505037     1.59700
Cd3161     Cd  0.97692022  0.63573848  0.13276688     1.59600
O3162       O  0.51232673  0.59107651  0.10732952    -0.80000
O3163       O  0.92443667  0.59154825  0.12144707    -1.90500
Cd3164     Cd  0.87745178  0.53974356  0.13210393     1.59900
O3165       O  0.53335393  0.62982992  0.12694600    -0.80000
O3166       O  0.81211600  0.52928340  0.13047878    -0.78600
C3167       C  0.95187485  0.70463779  0.12815575     0.83900
C3168       C  0.94392284  0.65270403  0.08895737     0.83600
O3169       O  0.82952474  0.59007868  0.11775963    -0.77600
C3170       C  0.89542158  0.97399639  0.11601573     0.84400
O3171       O  0.91376264  0.66977812  0.13019047    -0.77700
C3172       C  0.54158048  0.61180102  0.11661412     0.84500
C3173       C  0.92174868  0.58503603  0.15915718     0.84800
O3174       O  0.95624075  0.61840439  0.15335958    -0.80100
O3175       O  0.82702617  0.75382824  0.06781620    -0.77600
C3176       C  0.72519433  0.63342672  0.04151966     0.83400
O3177       O  0.87075570  0.81967327  0.03840744    -0.78700
O3178       O  0.72235747  0.72409295  0.01384954    -0.80200
O3179       O  0.67061592  0.74546018  0.06052418    -0.80000
O3180       O  0.78723905  0.78216947  0.07762311    -0.78600
Zn3181     Zn  0.79313823  0.72830497  0.05027242     1.55700
O3182       O  0.65370273  0.71339472  0.03964848    -0.80000
Cd3183     Cd  0.74302017  0.77757485  0.06135117     1.59700
Cd3184     Cd  0.80538520  0.80931581  0.03382823     1.59600
O3185       O  0.76029511  0.84448072  0.05913252    -0.80000
O3186       O  0.76076572  0.75659130  0.04496971    -1.90500
Cd3187     Cd  0.70924316  0.70989220  0.03415816     1.59900
O3188       O  0.79963416  0.86575413  0.03962610    -0.80000
O3189       O  0.69874663  0.64442526  0.03567845    -0.78600
C3190       C  0.87395736  0.78393522  0.03846527     0.83900
C3191       C  0.82112852  0.77515178  0.07752067     0.83600
O3192       O  0.75889199  0.66147038  0.04866491    -0.77600
C3193       C  0.64326264  0.72751278  0.05031363     0.84400
O3194       O  0.83911385  0.74585138  0.03635895    -0.77700
C3195       C  0.78134779  0.87386993  0.04990516     0.84500
C3196       C  0.75552421  0.75526830  0.00727091     0.84800
O3197       O  0.78875750  0.78946159  0.01320366    -0.80100
O3198       O  0.75174388  0.84475601  0.95071149    -0.77600
C3199       C  0.68893670  0.73030173  0.92208622     0.83400
O3200       O  0.63986952  0.68685692  0.96124838    -0.78700
O3201       O  0.75052811  0.66187871  0.94051488    -0.80200
O3202       O  0.85681059  0.79297943  0.95992907    -0.80000
O3203       O  0.81154796  0.86173039  0.96386098    -0.78600
Zn3204     Zn  0.71742678  0.77784896  0.94923908     1.55700
O3205       O  0.84002812  0.76081851  0.93906444    -0.80000
Cd3206     Cd  0.80126519  0.79640750  0.96539980     1.59700
Cd3207     Cd  0.70523782  0.69707838  0.96576214     1.59600
O3208       O  0.78830957  0.78233817  0.98571885    -0.80000
O3209       O  0.74982627  0.74967283  0.95458590    -1.90500
Cd3210     Cd  0.76758056  0.72865563  0.93821332     1.59900
O3211       O  0.72193633  0.71697106  0.98637680    -0.80000
O3212       O  0.72298500  0.72351938  0.92195800    -0.78600
C3213       C  0.63680723  0.72267819  0.96120824     0.83900
C3214       C  0.78523785  0.87274139  0.95793910     0.83600
O3215       O  0.68311460  0.75174538  0.93177274    -0.77600
C3216       C  0.86730805  0.77879587  0.94929271     0.84400
O3217       O  0.67178558  0.76072308  0.96323297    -0.77700
C3218       C  0.75516739  0.75116946  0.99230460     0.84500
C3219       C  0.72943888  0.63253537  0.94974866     0.84800
O3220       O  0.71102075  0.64064689  0.95999389    -0.80100
O3221       O  0.93363947  0.68052492  0.06793526    -0.77600
C3222       C  0.91510798  0.78258129  0.04165800     0.83400
O3223       O  0.95585658  0.63719379  0.03842461    -0.78700
O3224       O  0.50881599  0.78592488  0.01402335    -0.80200
O3225       O  0.58194586  0.83721067  0.06062532    -0.80000
O3226       O  0.50175021  0.72017122  0.07775858    -0.78600
Zn3227     Zn  0.94206626  0.71465467  0.05041291     1.55700
O3228       O  0.56652947  0.85417168  0.03979165    -0.80000
Cd3229     Cd  0.54147253  0.76472557  0.06150192     1.59700
Cd3230     Cd  0.51087540  0.70263581  0.03390566     1.59600
O3231       O  0.59115293  0.74751704  0.05919828    -0.80000
O3232       O  0.50273297  0.74709769  0.04511911    -1.90500
Cd3233     Cd  0.50754763  0.79867789  0.03433821     1.59900
O3234       O  0.57310089  0.70843601  0.03964398    -0.80000
O3235       O  0.95258631  0.80909733  0.03585486    -0.78600
C3236       C  0.91692702  0.63403044  0.03850716     0.83900
C3237       C  0.96082503  0.68628501  0.07764219     0.83600
O3238       O  0.90942181  0.74886606  0.04880200    -0.77600
C3239       C  0.59125309  0.86456603  0.05041358     0.84400
O3240       O  0.91372297  0.66891382  0.03644054    -0.77700
C3241       C  0.59953431  0.72665109  0.04991720     0.84500
C3242       C  0.50699170  0.75290859  0.00740655     0.84800
O3243       O  0.50788003  0.71958284  0.01330291    -0.80100
O3244       O  0.60131623  0.75809465  0.95110895    -0.77600
C3245       C  0.54962719  0.82009139  0.92227359     0.83400
O3246       O  0.55437351  0.86932540  0.96144207    -0.78700
O3247       O  0.91948997  0.75868713  0.94053041    -0.80200
O3248       O  0.94412469  0.65213447  0.96009033    -0.80000
O3249       O  0.55816424  0.69744104  0.96390512    -0.78600
Zn3250     Zn  0.56851800  0.79214971  0.94954725     1.55700
O3251       O  0.92886622  0.66901788  0.93922847    -0.80000
Cd3252     Cd  0.50314327  0.70776955  0.96551447     1.59700
Cd3253     Cd  0.49946069  0.80374621  0.96593630     1.59600
O3254       O  0.00198903  0.72065016  0.98582425    -0.80000
O3255       O  0.50782039  0.75933935  0.95476141    -1.90500
Cd3256     Cd  0.96920920  0.74148776  0.93835475     1.59900
O3257       O  0.00239225  0.78674739  0.98654571    -0.80000
O3258       O  0.00892840  0.78584236  0.92210170    -0.78600
C3259       C  0.59333864  0.87257942  0.96143633     0.83900
C3260       C  0.59565103  0.72416738  0.95813745     0.83600
O3261       O  0.57674987  0.82629791  0.93204171    -0.77600
C3262       C  0.91948825  0.64167676  0.94944529     0.84400
O3263       O  0.59655451  0.83774566  0.96358564    -0.77700
C3264       C  0.00354306  0.75354904  0.99244032     0.84500
C3265       C  0.91100304  0.77960539  0.94976745     0.84800
O3266       O  0.93727941  0.79782075  0.96007433    -0.80100
O3267       O  0.75320740  0.57383308  0.06786156    -0.77600
C3268       C  0.87439039  0.59286923  0.04166279     0.83400
O3269       O  0.68811667  0.55192173  0.03831698    -0.78700
O3270       O  0.78432636  0.99933151  0.01396048    -0.80200
O3271       O  0.76257213  0.92609841  0.06057888    -0.80000
O3272       O  0.72518816  0.00574829  0.07766715    -0.78600
Zn3273     Zn  0.77934105  0.56574829  0.05035895     1.55700
O3274       O  0.79481641  0.94146443  0.03973004    -0.80000
Cd3275     Cd  0.73036471  0.96635299  0.06141756     1.59700
Cd3276     Cd  0.69865263  0.49689516  0.03383535     1.59600
O3277       O  0.66356385  0.91659189  0.05917271    -0.80000
O3278       O  0.75131785  0.50512709  0.04504137    -1.90500
Cd3279     Cd  0.79820225  0.50043415  0.03428222     1.59900
O3280       O  0.64226305  0.93464744  0.03966601    -0.80000
O3281       O  0.86351536  0.55542705  0.03585062    -0.78600
C3282       C  0.72384100  0.59086980  0.03838542     0.83900
C3283       C  0.73181714  0.54651213  0.07754553     0.83600
O3284       O  0.84627193  0.59850037  0.04878725    -0.77600
C3285       C  0.78058647  0.91678368  0.05036331     0.84400
O3286       O  0.76195951  0.59408556  0.03636304    -0.77700
C3287       C  0.63417071  0.90823874  0.04994562     0.84500
C3288       C  0.75314388  0.00116671  0.00733766     0.84800
O3289       O  0.71880256  0.00006655  0.01322645    -0.80100
O3290       O  0.66378886  0.90786023  0.95103705    -0.77600
C3291       C  0.77786790  0.95939232  0.92208593     0.83400
O3292       O  0.82215771  0.95415343  0.96125870    -0.78700
O3293       O  0.84728284  0.58964805  0.94061049    -0.80200
O3294       O  0.71601952  0.56505059  0.95997800    -0.80000
O3295       O  0.64694076  0.95122115  0.96396570    -0.78600
Zn3296     Zn  0.73065727  0.94044047  0.94929940     1.55700
O3297       O  0.74830612  0.58031219  0.93913259    -0.80000
Cd3298     Cd  0.71243872  0.50602472  0.96544858     1.59700
Cd3299     Cd  0.81178344  0.50916848  0.96585928     1.59600
O3300       O  0.72639921  0.50707835  0.98576088    -0.80000
O3301       O  0.75915165  0.50109829  0.95466075    -1.90500
Cd3302     Cd  0.78041765  0.53998449  0.93830986     1.59900
O3303       O  0.79164445  0.50580186  0.98647503    -0.80000
O3304       O  0.78533690  0.50045734  0.92204781    -0.78600
C3305       C  0.78644484  0.91519477  0.96110450     0.83900
C3306       C  0.63585251  0.91367013  0.95819185     0.83600
O3307       O  0.75603607  0.93203891  0.93171490    -0.77600
C3308       C  0.73026813  0.58966830  0.94933271     0.84400
O3309       O  0.74826872  0.91184167  0.96313918    -0.77700
C3310       C  0.75743122  0.50493777  0.99237345     0.84500
C3311       C  0.87657047  0.59796650  0.94987170     0.84800
O3312       O  0.86834216  0.57148835  0.96013978    -0.80100
loop_ 
_geom_bond_atom_site_label_1 
_geom_bond_atom_site_label_2 
_geom_bond_distance 
_geom_bond_site_symmetry_2 
_ccdc_geom_bond_type 
O1           C17   1.273       .  A
O1           Zn7   1.975       .  S
C2           O18   1.271       .  A
C2           O15   1.288       .  A
C2          C324   1.485       .  S
O3           C16   1.273       .  A
O3          Cd10   2.120       .  S
O4           C22   1.270       .  A
O4         Cd841   2.055       .  S
O5           C19   1.272       .  A
O5        Cd1665   2.021   1_455  S
O6           C17   1.269       .  A
O6           Cd9   2.072       .  S
Zn7          O18   2.012       .  S
Zn7          O20   1.930       .  S
Zn7          O12   1.861       .  S
O8         C1675   1.293       .  A
O8          Cd13   2.141       .  S
Cd9          O11   2.040       .  S
Cd9        O1661   2.021       .  S
Cd9          O12   1.982       .  S
Cd10         O14   2.120       .  S
Cd10        O851   2.104   1_545  S
Cd10         O12   1.998       .  S
O11          C21   1.270       .  A
O12         Cd13   1.970       .  S
Cd13         O15   2.145       .  S
Cd13        O832   2.055   1_545  S
O14          C21   1.286       .  A
C16          O20   1.260       .  A
C16         C109   1.458       .  S
C17          C62   1.456       .  S
C19        O1664   1.293       .  A
C19         C114   1.473       .  S
C21          C45   1.473       .  S
C22          O23   1.284       .  A
C22          C65   1.473       .  S
O23        Cd838   2.104       .  S
O24          C40   1.271       .  A
O24         Zn30   2.012       .  S
C25          O38   1.269       .  A
C25         O869   1.273       .  A
C25          C85   1.456       .  S
O26          C39   1.273       .  A
O26       Cd1689   2.120   1_455  S
O27          C45   1.270       .  A
O27         Cd36   2.040       .  S
O28          C42   1.293       .  A
O28         Cd32   2.142       .  S
O29          C40   1.289       .  A
O29         Cd32   2.146       .  S
Zn30         O41   1.976   1_545  S
Zn30       O1699   1.929       .  S
Zn30         O35   1.861       .  S
O31          C42   1.272       .  A
O31         Cd36   2.019       .  S
Cd32         O34   2.055       .  S
Cd32         O35   1.970       .  S
Cd33         O37   2.104       .  S
Cd33         O46   2.120       .  S
Cd33       O1682   2.120       .  S
Cd33         O35   1.998       .  S
O34          C44   1.270       .  A
O35         Cd36   1.982       .  S
Cd36        O866   2.072   1_545  S
O37          C44   1.284       .  A
O38        Cd864   2.072       .  S
C39          O43   1.260       .  A
C39         C117   1.457       .  S
C40        C1834   1.485       .  S
O41         C853   1.273       .  A
C42         C136   1.473       .  S
O43       Zn1686   1.929   1_455  S
C44          C88   1.473       .  S
C45          O46   1.286       .  A
O47          C63   1.273       .  A
O47         Zn53   1.975       .  S
C48          O64   1.271       .  A
C48          O61   1.288       .  A
C48         C370   1.484       .  S
O49          C62   1.273       .  A
O49         Cd56   2.116       .  S
O50          C68   1.270       .  A
O50       Cd1715   2.058   1_455  S
O51          C65   1.272       .  A
O51         Cd55   2.021       .  S
O52          C63   1.270       .  A
O52         Cd55   2.075       .  S
Zn53         O64   2.007       .  S
Zn53         O66   1.930       .  S
Zn53         O58   1.862       .  S
O54          C65   1.293       .  A
O54         Cd59   2.140       .  S
Cd55         O57   2.043       .  S
Cd55         O58   1.982       .  S
Cd56         O60   2.112       .  S
Cd56       O1725   2.099       .  S
Cd56         O58   1.996       .  S
O57          C67   1.271       .  A
O58         Cd59   1.969       .  S
Cd59         O61   2.146       .  S
Cd59       O1706   2.058       .  S
O60          C67   1.285       .  A
C62          O66   1.261       .  A
C63         C108   1.457       .  S
C67          C91   1.471       .  S
C68          O69   1.283       .  A
C68         C111   1.473       .  S
O69       Cd1712   2.099   1_455  S
O70          C86   1.271       .  A
O70         Zn76   2.008       .  S
C71          O87   1.273       .  A
C71          O84   1.270       .  A
C71         C131   1.457       .  S
O72          C85   1.273       .  A
O72         Cd79   2.117       .  S
O73          C91   1.271       .  A
O73         Cd82   2.042       .  S
O74          C88   1.293       .  A
O74         Cd78   2.139       .  S
O75          C86   1.288       .  A
O75         Cd78   2.146       .  S
Zn76         O89   1.930       .  S
Zn76       O1743   1.975       .  S
Zn76         O81   1.863       .  S
O77          C88   1.272       .  A
O77         Cd82   2.021       .  S
Cd78         O80   2.060       .  S
Cd78         O81   1.970       .  S
Cd79         O83   2.100       .  S
Cd79         O92   2.113       .  S
Cd79         O81   1.997       .  S
O80          C90   1.270       .  A
O81         Cd82   1.983       .  S
Cd82       O1740   2.076       .  S
O83          C90   1.283       .  A
O84       Cd1738   2.076   1_455  S
C85          O89   1.261       .  A
C86         C224   1.484       .  S
O87       Zn1732   1.975   1_455  S
C90         C134   1.473       .  S
C91          O92   1.285       .  A
O93         C109   1.273       .  A
O93         Zn99   1.976       .  S
C94         O110   1.271       .  A
C94         O107   1.288       .  A
C94         C278   1.483       .  S
O95         C108   1.273       .  A
O95        Cd102   2.117       .  S
O96         C114   1.270       .  A
O96        Cd105   2.058       .  S
O97         C111   1.273       .  A
O97        Cd929   2.024       .  S
O98         C109   1.269       .  A
O98        Cd101   2.076       .  S
Zn99        O110   2.011       .  S
Zn99        O112   1.932       .  S
Zn99        O104   1.861       .  S
O100        C111   1.292       .  A
O100       Cd933   2.137       .  S
Cd101       O103   2.044       .  S
Cd101       O925   2.024   1_545  S
Cd101       O104   1.982       .  S
Cd102       O106   2.115       .  S
Cd102       O115   2.102       .  S
Cd102       O104   1.997       .  S
O103        C113   1.271       .  A
O104       Cd105   1.969       .  S
Cd105       O107   2.142       .  S
Cd105       O928   2.137   1_545  S
O106        C113   1.286       .  A
C108        O112   1.260       .  A
C113        C137   1.472       .  S
C114        O115   1.284       .  A
O116        C132   1.271       .  A
O116       Zn122   2.012       .  S
C117        O133   1.273       .  A
C117        O130   1.269       .  A
O118        C131   1.273       .  A
O118       Cd953   2.118       .  S
O119        C137   1.271       .  A
O119       Cd128   2.044       .  S
O120        C134   1.292       .  A
O120       Cd124   2.138       .  S
O121        C132   1.288       .  A
O121       Cd124   2.142       .  S
Zn122       O133   1.975       .  S
Zn122       O963   1.932   1_545  S
Zn122       O127   1.860       .  S
O123        C134   1.273       .  A
O123       Cd128   2.025       .  S
Cd124       O126   2.057       .  S
Cd124       O127   1.969       .  S
Cd125       O129   2.102       .  S
Cd125       O138   2.115       .  S
Cd125       O946   2.118   1_545  S
Cd125       O127   1.996       .  S
O126        C136   1.270       .  A
O127       Cd128   1.982       .  S
Cd128       O130   2.075       .  S
O129        C136   1.284       .  A
C131        O135   1.260       .  A
C132       C1098   1.483   1_545  S
O135       Zn950   1.932       .  S
C137        O138   1.286       .  A
O139        C155   1.273       .  A
O139       Zn145   1.975       .  S
C140        O156   1.271       .  A
C140        O153   1.288       .  A
C140        C715   1.485       .  S
O141        C154   1.273       .  A
O141       Cd148   2.119       .  S
O142        C160   1.270       .  A
O142       Cd151   2.057       .  S
O143        C157   1.272       .  A
O143      Cd1803   2.020       .  S
O144        C155   1.269       .  A
O144       Cd147   2.074       .  S
Zn145       O156   2.010       .  S
Zn145       O158   1.930       .  S
Zn145       O150   1.861       .  S
O146       C1813   1.293   1_455  A
O146       Cd151   2.141       .  S
Cd147       O149   2.041       .  S
Cd147      O1799   2.020   1_455  S
Cd147       O150   1.982       .  S
Cd148       O152   2.116       .  S
Cd148       O161   2.101       .  S
Cd148       O150   1.997       .  S
O149        C159   1.271       .  A
O150       Cd151   1.970       .  S
Cd151       O153   2.146       .  S
O152        C159   1.286       .  A
C154        O158   1.261       .  A
C154        C201   1.457       .  S
C155        C246   1.456       .  S
C157       O1802   1.293       .  A
C157        C206   1.473       .  S
C159        C183   1.472       .  S
C160        O161   1.284       .  A
C160        C249   1.473       .  S
O162        C178   1.271       .  A
O162       Zn168   2.010       .  S
C163        O179   1.273       .  A
C163        O176   1.269       .  A
C163        C269   1.456       .  S
O164        C177   1.273       .  A
O164      Cd1827   2.118       .  S
O165        C183   1.271       .  A
O165       Cd174   2.041       .  S
O166        C180   1.293       .  A
O166       Cd170   2.141       .  S
O167        C178   1.289       .  A
O167       Cd170   2.147       .  S
Zn168       O179   1.975       .  S
Zn168      O1837   1.930       .  S
Zn168       O173   1.862       .  S
O169        C180   1.272       .  A
O169       Cd174   2.020       .  S
Cd170       O172   2.057       .  S
Cd170       O173   1.970       .  S
Cd171       O175   2.101       .  S
Cd171       O184   2.115       .  S
Cd171      O1820   2.118   1_455  S
Cd171       O173   1.997       .  S
O172        C182   1.270       .  A
O173       Cd174   1.982       .  S
Cd174       O176   2.074       .  S
O175        C182   1.284       .  A
C177        O181   1.261       .  A
C177        C209   1.457       .  S
C178       C1696   1.485   1_455  S
C180        C228   1.473       .  S
O181      Zn1824   1.930       .  S
C182        C272   1.473       .  S
C183        O184   1.286       .  A
O185        C201   1.273       .  A
O185       Zn191   1.976       .  S
C186        O202   1.271       .  A
C186        O199   1.288       .  A
C186        C807   1.485       .  S
O187        C200   1.273       .  A
O187       Cd194   2.119       .  S
O188        C206   1.270       .  A
O188      Cd1025   2.056   1_545  S
O189        C203   1.272       .  A
O189       Cd193   2.022       .  S
O190        C201   1.269       .  A
O190       Cd193   2.074       .  S
Zn191       O202   2.012       .  S
Zn191       O204   1.930       .  S
Zn191       O196   1.862       .  S
O192        C203   1.293       .  A
O192       Cd197   2.140       .  S
Cd193       O195   2.042       .  S
Cd193       O196   1.983       .  S
Cd194       O198   2.119       .  S
Cd194      O1035   2.104       .  S
Cd194       O196   1.997       .  S
O195        C205   1.271       .  A
O196       Cd197   1.970       .  S
Cd197       O199   2.144       .  S
Cd197      O1016   2.056       .  S
O198        C205   1.286       .  A
C200        O204   1.260       .  A
C200        C247   1.457       .  S
C203        C252   1.473       .  S
C205        C229   1.473       .  S
C206        O207   1.284       .  A
O207      Cd1022   2.104   1_545  S
O208        C224   1.272       .  A
O208       Zn214   2.012       .  S
C209        O225   1.273       .  A
C209        O222   1.269       .  A
O210        C223   1.273       .  A
O210       Cd217   2.119       .  S
O211        C229   1.271       .  A
O211       Cd220   2.042       .  S
O212        C226   1.293       .  A
O212       Cd216   2.139       .  S
O213        C224   1.288       .  A
O213       Cd216   2.143       .  S
Zn214       O227   1.930       .  S
Zn214      O1053   1.976       .  S
Zn214       O219   1.861       .  S
O215        C226   1.272       .  A
O215       Cd220   2.022       .  S
Cd216       O218   2.055       .  S
Cd216       O219   1.970       .  S
Cd217       O221   2.103       .  S
Cd217       O230   2.118       .  S
Cd217       O219   1.997       .  S
O218        C228   1.270       .  A
O219       Cd220   1.982       .  S
Cd220      O1050   2.074       .  S
O221        C228   1.284       .  A
O222      Cd1048   2.074   1_545  S
C223        O227   1.260       .  A
C223        C255   1.457       .  S
O225      Zn1042   1.976   1_545  S
C226        C274   1.473       .  S
C229        O230   1.286       .  A
O231        C247   1.273       .  A
O231       Zn237   1.976       .  S
C232        O248   1.271       .  A
C232        O245   1.288       .  A
C232        C761   1.484       .  S
O233        C246   1.273       .  A
O233       Cd240   2.117       .  S
O234        C252   1.270       .  A
O234      Cd1899   2.058       .  S
O235        C249   1.272       .  A
O235      Cd1067   2.023   1_545  S
O236        C247   1.269       .  A
O236       Cd239   2.075       .  S
Zn237       O248   2.010       .  S
Zn237       O250   1.930       .  S
Zn237       O242   1.861       .  S
O238        C249   1.293       .  A
O238      Cd1071   2.138   1_545  S
Cd239       O241   2.044       .  S
Cd239      O1063   2.023       .  S
Cd239       O242   1.982       .  S
Cd240       O244   2.114       .  S
Cd240      O1909   2.101   1_455  S
Cd240       O242   1.997       .  S
O241        C251   1.271       .  A
O242       Cd243   1.970       .  S
Cd243       O245   2.144       .  S
Cd243      O1890   2.058   1_455  S
Cd243      O1066   2.138       .  S
O244        C251   1.285       .  A
C246        O250   1.261       .  A
C251        C275   1.472       .  S
C252        O253   1.284       .  A
O253      Cd1896   2.101       .  S
O254        C270   1.271       .  A
O254       Zn260   2.008       .  S
C255        O268   1.270       .  A
C255       O1927   1.273       .  A
O256        C269   1.273       .  A
O256      Cd1091   2.117   1_545  S
O257        C275   1.271       .  A
O257       Cd266   2.044       .  S
O258        C272   1.293       .  A
O258       Cd262   2.138       .  S
O259        C270   1.288       .  A
O259       Cd262   2.143       .  S
Zn260       O271   1.974   1_455  S
Zn260      O1101   1.930       .  S
Zn260       O265   1.861       .  S
O261        C272   1.272       .  A
O261       Cd266   2.023       .  S
Cd262       O264   2.059       .  S
Cd262       O265   1.970       .  S
Cd263       O267   2.101       .  S
Cd263       O276   2.114       .  S
Cd263      O1084   2.117       .  S
Cd263       O265   1.997       .  S
O264        C274   1.270       .  A
O265       Cd266   1.983       .  S
Cd266      O1924   2.076   1_455  S
O267        C274   1.284       .  A
O268      Cd1922   2.076       .  S
C269        O273   1.261       .  A
C270        C960   1.483       .  S
O271       C1911   1.273       .  A
O273      Zn1088   1.930   1_545  S
C275        O276   1.285       .  A
O277        C293   1.273       .  A
O277       Zn283   1.974       .  S
C278        O294   1.271       .  A
C278        O291   1.288       .  A
O279        C292   1.273       .  A
O279       Cd286   2.118       .  S
O280        C298   1.270       .  A
O280       Cd289   2.058       .  S
O281        C295   1.272       .  A
O281       Cd285   2.023       .  S
O282        C293   1.270       .  A
O282       Cd285   2.076       .  S
Zn283       O294   2.009       .  S
Zn283       O296   1.930       .  S
Zn283       O288   1.861       .  S
O284        C295   1.293       .  A
O284       Cd289   2.138       .  S
Cd285       O287   2.043       .  S
Cd285       O288   1.983       .  S
Cd286       O290   2.116       .  S
Cd286       O299   2.102       .  S
Cd286       O288   1.997       .  S
O287        C297   1.271       .  A
O288       Cd289   1.970       .  S
Cd289       O291   2.143       .  S
O290        C297   1.286       .  A
C292        O296   1.260       .  A
C292        C339   1.457       .  S
C293        C384   1.457       .  S
C295        C344   1.473       .  S
C297        C321   1.472       .  S
C298        O299   1.284       .  A
C298        C387   1.473       .  S
O300        C316   1.271       .  A
O300       Zn306   2.011       .  S
C301        O317   1.273       .  A
C301        O314   1.269       .  A
C301        C407   1.457       .  S
O302        C315   1.273       .  A
O302       Cd309   2.117       .  S
O303        C321   1.271       .  A
O303       Cd312   2.043       .  S
O304        C318   1.293       .  A
O304       Cd308   2.140       .  S
O305        C316   1.288       .  A
O305       Cd308   2.145       .  S
Zn306       O317   1.977       .  S
Zn306       O319   1.930       .  S
Zn306       O311   1.862       .  S
O307        C318   1.272       .  A
O307       Cd312   2.021       .  S
Cd308       O310   2.057       .  S
Cd308       O311   1.970       .  S
Cd309       O313   2.102       .  S
Cd309       O322   2.116       .  S
Cd309       O311   1.997       .  S
O310        C320   1.270       .  A
O311       Cd312   1.983       .  S
Cd312       O314   2.074       .  S
O313        C320   1.284       .  A
C315        O319   1.261       .  A
C315        C347   1.456       .  S
C316        C546   1.485       .  S
C318        C366   1.472       .  S
C320        C410   1.473       .  S
C321        O322   1.286       .  A
O323        C339   1.273       .  A
O323       Zn329   1.976       .  S
C324        O340   1.271       .  A
C324       O1165   1.289   1_545  A
O325        C338   1.273       .  A
O325      Cd1160   2.117   1_545  S
O326        C344   1.270       .  A
O326       Cd335   2.058       .  S
O327        C341   1.272       .  A
O327       Cd331   2.021       .  S
O328        C339   1.269       .  A
O328      Cd1159   2.074   1_545  S
Zn329       O340   2.010       .  S
Zn329       O342   1.930       .  S
Zn329       O334   1.862   1_545  S
O330        C341   1.293       .  A
O330       Cd335   2.140       .  S
Cd331       O333   2.042       .  S
Cd331      O1156   2.074       .  S
Cd331      O1162   1.982       .  S
Cd332       O336   2.115       .  S
Cd332       O345   2.101       .  S
Cd332      O1153   2.117       .  S
Cd332      O1162   1.997       .  S
O333        C343   1.271       .  A
O334      Cd1159   1.982       .  S
O334      Cd1160   1.997       .  S
O334      Cd1163   1.970       .  S
Cd335       O337   2.146       .  S
Cd335      O1162   1.970       .  S
O336        C343   1.285       .  A
O337       C1152   1.289       .  A
C338        O342   1.261       .  A
C338        C385   1.457       .  S
C341        C390   1.473       .  S
C343       C1195   1.472       .  S
C344        O345   1.284       .  A
O346        C362   1.271       .  A
O346       Zn352   2.010       .  S
C347        O363   1.273       .  A
C347        O360   1.269       .  A
O348        C361   1.273       .  A
O348       Cd355   2.118       .  S
O349        C367   1.271       .  A
O349      Cd1186   2.043       .  S
O350        C364   1.293       .  A
O350       Cd354   2.139       .  S
O351       C1190   1.288       .  A
O351       Cd354   2.144   1_565  S
Zn352       O363   1.975       .  S
Zn352       O365   1.930       .  S
Zn352       O357   1.860       .  S
O353        C364   1.272       .  A
O353      Cd1186   2.022   1_545  S
Cd354       O356   2.056       .  S
Cd354      O1185   1.970   1_545  S
Cd355      O1187   2.101       .  S
Cd355      O1196   2.116       .  S
Cd355       O357   1.996       .  S
O356        C366   1.270       .  A
O357       Cd358   1.982       .  S
O357      Cd1182   1.970       .  S
Cd358       O360   2.074       .  S
Cd358      O1177   2.043       .  S
Cd358      O1181   2.022       .  S
O359        C366   1.284       .  A
O359      Cd1183   2.101       .  S
C361        O365   1.260       .  A
C361        C393   1.457       .  S
C362       O1179   1.288       .  A
C362        C500   1.484       .  S
C364        C412   1.473       .  S
C367        O368   1.286       .  A
C367       C1171   1.472       .  S
O368      Cd1183   2.116   1_565  S
O369        C385   1.273       .  A
O369       Zn375   1.976       .  S
C370        O386   1.271       .  A
C370       O2039   1.288       .  A
O371        C384   1.273       .  A
O371       Cd378   2.119       .  S
O372        C390   1.270       .  A
O372       Cd381   2.055       .  S
O373        C387   1.272       .  A
O373      Cd2033   2.021       .  S
O374        C385   1.269       .  A
O374       Cd377   2.074       .  S
Zn375       O386   2.011       .  S
Zn375       O388   1.930       .  S
Zn375       O380   1.861       .  S
O376        C387   1.293       .  A
O376       Cd381   2.140       .  S
Cd377      O2029   2.021       .  S
Cd377      O2035   2.041       .  S
Cd377       O380   1.982       .  S
Cd378      O2038   2.116       .  S
Cd378      O2047   2.103       .  S
Cd378       O380   1.997       .  S
O379        C389   1.271       .  A
O379      Cd2033   2.041       .  S
O380      Cd2037   1.969       .  S
Cd381       O383   2.143   1_455  S
Cd381      O2036   1.969   1_455  S
O382        C389   1.286       .  A
O382      Cd2034   2.116       .  S
O383       C2026   1.288       .  A
C384        O388   1.260       .  A
C389       C2069   1.472   1_455  S
C390        O391   1.284       .  A
O391      Cd2034   2.103       .  S
O392        C408   1.271       .  A
O392       Zn398   2.010       .  S
C393        O409   1.273       .  A
C393        O406   1.269       .  A
O394        C407   1.273       .  A
O394      Cd2057   2.118   1_455  S
O395        C413   1.271       .  A
O395       Cd404   2.041       .  S
O396        C410   1.293       .  A
O396       Cd400   2.140       .  S
O397       C2064   1.288       .  A
O397       Cd400   2.144       .  S
Zn398       O409   1.974       .  S
Zn398       O411   1.930       .  S
Zn398       O403   1.862       .  S
O399        C410   1.272       .  A
O399       Cd404   2.022       .  S
Cd400       O402   2.058       .  S
Cd400      O2059   1.970       .  S
Cd401       O405   2.102       .  S
Cd401       O414   2.117       .  S
Cd401      O2050   2.118       .  S
Cd401      O2059   1.997       .  S
O402        C412   1.270       .  A
O403      Cd2056   1.970   1_455  S
O403      Cd2057   1.997   1_455  S
O403      Cd2060   1.983   1_455  S
Cd404      O2062   2.075       .  S
Cd404      O2059   1.983       .  S
O405        C412   1.284       .  A
O406      Cd2060   2.075   1_455  S
C407        O411   1.260       .  A
C408       O2053   1.288       .  A
C408        C454   1.484       .  S
C413        O414   1.286       .  A
C413       C2045   1.472       .  S
O415        C431   1.273       .  A
O415      Zn2077   1.977       .  S
C416        O432   1.272       .  A
C416        O429   1.288       .  A
C416        C600   1.484       .  S
O417        C430   1.273       .  A
O417       Cd424   2.118       .  S
O418        C436   1.270       .  A
O418       Cd427   2.055       .  S
O419        C433   1.272       .  A
O419       Cd423   2.023       .  S
O420        C431   1.269       .  A
O420      Cd2079   2.075       .  S
Zn421       O432   2.013       .  S
Zn421       O434   1.931       .  S
Zn421      O2071   1.977   1_455  S
Zn421       O426   1.861       .  S
O422        C433   1.292       .  A
O422       Cd427   2.138       .  S
Cd423       O425   2.043       .  S
Cd423      O2076   2.075   1_455  S
Cd423       O426   1.982       .  S
Cd424       O428   2.117       .  S
Cd424       O437   2.105       .  S
Cd424       O426   1.997       .  S
O425        C435   1.271       .  A
O426       Cd427   1.970       .  S
Cd427       O429   2.141       .  S
O428        C435   1.286       .  A
C430        O434   1.260       .  A
C430        C477   1.457       .  S
C431        C522   1.458       .  S
C433        C482   1.473       .  S
C435        C459   1.473       .  S
C436        O437   1.285       .  A
C436        C525   1.473       .  S
O438        C454   1.271       .  A
O438       Zn444   2.011       .  S
C439        O455   1.273       .  A
C439        O452   1.269       .  A
C439        C545   1.458       .  S
O440        C453   1.273       .  A
O440       Cd447   2.118       .  S
O441        C459   1.271       .  A
O441       Cd450   2.043       .  S
O442        C456   1.293       .  A
O442       Cd446   2.138       .  S
O443        C454   1.288       .  A
O443       Cd446   2.143       .  S
Zn444       O455   1.977       .  S
Zn444       O457   1.931       .  S
Zn444       O449   1.862       .  S
O445        C456   1.272       .  A
O445       Cd450   2.022       .  S
Cd446      O2104   2.057   1_455  S
Cd446       O449   1.970       .  S
Cd447       O460   2.118       .  S
Cd447      O2107   2.104   1_455  S
Cd447       O449   1.997       .  S
O448        C458   1.270       .  A
O448      Cd2102   2.057       .  S
O449       Cd450   1.983       .  S
Cd450       O452   2.075       .  S
O451        C458   1.284       .  A
O451      Cd2103   2.104       .  S
C453        O457   1.261       .  A
C453        C485   1.457       .  S
C456        C504   1.472       .  S
C458        C548   1.474       .  S
C459        O460   1.286       .  A
O461       C1305   1.272       .  A
O461       Zn467   1.974       .  S
C462        O478   1.271       .  A
C462        O475   1.288       .  A
C462       C2210   1.483   1_455  S
O463        C476   1.273       .  A
O463      Cd2126   2.117       .  S
O464        C482   1.270       .  A
O464       Cd473   2.059       .  S
O465        C479   1.272       .  A
O465       Cd469   2.023       .  S
O466        C477   1.270       .  A
O466      Cd1297   2.076   1_545  S
Zn467       O478   2.007       .  S
Zn467      O2136   1.930   1_455  S
Zn467       O472   1.861       .  S
O468        C479   1.293       .  A
O468       Cd473   2.139       .  S
Cd469       O471   2.043       .  S
Cd469      O1294   2.076       .  S
Cd469       O472   1.982       .  S
Cd470       O474   2.114       .  S
Cd470       O483   2.099       .  S
Cd470      O2119   2.117   1_455  S
Cd470       O472   1.997       .  S
O471        C481   1.271       .  A
O472       Cd473   1.969       .  S
Cd473       O475   2.144       .  S
O474        C481   1.285       .  A
C476        O480   1.261       .  A
C476        C523   1.456       .  S
C477       O1289   1.272       .  A
C479        C528   1.473       .  S
O480      Zn2123   1.930       .  S
C481        C505   1.472       .  S
C482        O483   1.283       .  A
O484        C500   1.271       .  A
O484       Zn490   2.009       .  S
C485        O501   1.273       .  A
C485        O498   1.270       .  A
O486        C499   1.273       .  A
O486       Cd493   2.116       .  S
O487        C505   1.271       .  A
O487       Cd496   2.043       .  S
O488        C502   1.293       .  A
O488      Cd2148   2.139       .  S
O489        C500   1.288       .  A
O489       Cd492   2.145       .  S
Zn490       O501   1.975       .  S
Zn490       O503   1.930       .  S
Zn490       O495   1.860       .  S
O491        C502   1.272       .  A
O491      Cd2152   2.022       .  S
Cd492      O2144   2.139   1_455  S
Cd492      O1322   2.057       .  S
Cd492       O495   1.969       .  S
Cd493       O506   2.113       .  S
Cd493      O1325   2.099       .  S
Cd493       O495   1.996       .  S
O494        C504   1.270       .  A
O494      Cd1320   2.057   1_545  S
O495       Cd496   1.982       .  S
Cd496       O498   2.075       .  S
Cd496      O2147   2.022   1_455  S
O497        C504   1.284       .  A
O497      Cd1321   2.099   1_545  S
C499        O503   1.261       .  A
C499        C531   1.456       .  S
C502        C550   1.473       .  S
C505        O506   1.285       .  A
O507        C523   1.273       .  A
O507       Zn513   1.976       .  S
C508        O524   1.271       .  A
C508        O521   1.289       .  A
C508       C1474   1.486       .  S
O509        C522   1.273       .  A
O509      Cd1344   2.119   1_545  S
O510        C528   1.270       .  A
O510       Cd519   2.057       .  S
O511        C525   1.271       .  A
O511       Cd515   2.019       .  S
O512        C523   1.269       .  A
O512       Cd515   2.072       .  S
Zn513       O524   2.011       .  S
Zn513      O1354   1.930       .  S
Zn513       O518   1.862       .  S
O514        C525   1.293       .  A
O514       Cd519   2.143       .  S
Cd515       O517   2.040       .  S
Cd515       O518   1.983       .  S
Cd516       O520   2.117       .  S
Cd516       O529   2.102       .  S
Cd516      O1337   2.119       .  S
Cd516       O518   1.997       .  S
O517        C527   1.270       .  A
O518       Cd519   1.970       .  S
Cd519       O521   2.148       .  S
O520        C527   1.286       .  A
C522        O526   1.260   1_545  A
O526      Zn1341   1.930       .  S
C527        C551   1.472       .  S
C528        O529   1.284       .  A
O530        C546   1.271       .  A
O530       Zn536   2.012       .  S
C531        O547   1.273       .  A
C531        O544   1.269       .  A
O532        C545   1.273       .  A
O532       Cd539   2.120       .  S
O533        C551   1.271       .  A
O533       Cd542   2.041       .  S
O534       C1376   1.293       .  A
O534       Cd538   2.142       .  S
O535        C546   1.289       .  A
O535       Cd538   2.146       .  S
Zn536       O547   1.974       .  S
Zn536       O549   1.930       .  S
Zn536       O541   1.862       .  S
O537        C548   1.272       .  A
O537      Cd1370   2.021   1_545  S
Cd538       O540   2.056       .  S
Cd538       O541   1.970       .  S
Cd539       O543   2.102       .  S
Cd539       O552   2.117       .  S
Cd539       O541   1.997       .  S
O540        C550   1.270       .  A
O541       Cd542   1.983       .  S
Cd542       O544   2.073       .  S
Cd542      O1365   2.021       .  S
O543        C550   1.284       .  A
C545        O549   1.260       .  A
C548       O1362   1.293   1_545  A
C551        O552   1.286       .  A
O553        C569   1.273       .  A
O553       Zn559   1.976       .  S
C554        O570   1.271       .  A
C554        O567   1.288       .  A
C554       C2118   1.483       .  S
O555        C568   1.273       .  A
O555      Cd2218   2.117   1_455  S
O556        C574   1.270       .  A
O556       Cd565   2.057       .  S
O557        C571   1.273       .  A
O557       Cd561   2.025       .  S
O558        C569   1.270       .  A
O558       Cd561   2.076       .  S
Zn559       O570   2.011       .  S
Zn559      O2228   1.932       .  S
Zn559       O564   1.860       .  S
O560        C571   1.292       .  A
O560       Cd565   2.137       .  S
Cd561       O563   2.045       .  S
Cd561       O564   1.982       .  S
Cd562       O566   2.114       .  S
Cd562       O575   2.102       .  S
Cd562      O2211   2.117       .  S
Cd562       O564   1.996       .  S
O563        C573   1.271       .  A
O564       Cd565   1.969       .  S
Cd565       O567   2.141       .  S
O566        C573   1.285       .  A
C568        O572   1.261       .  A
C568        C615   1.456       .  S
C569        C660   1.458       .  S
C571        C620   1.473       .  S
O572      Zn2215   1.932   1_455  S
C573        C597   1.472       .  S
C574        O575   1.284       .  A
C574        C663   1.473       .  S
O576        C592   1.271       .  A
O576       Zn582   2.010       .  S
C577        O593   1.273       .  A
C577        O590   1.269       .  A
C577        C683   1.458       .  S
O578        C591   1.273       .  A
O578       Cd585   2.116       .  S
O579        C597   1.271       .  A
O579       Cd588   2.045       .  S
O580        C594   1.292       .  A
O580      Cd2240   2.137   1_455  S
O581        C592   1.288       .  A
O581       Cd584   2.142       .  S
Zn582       O593   1.977       .  S
Zn582       O595   1.931       .  S
Zn582       O587   1.861       .  S
O583        C594   1.273       .  A
O583      Cd2244   2.024   1_455  S
Cd584       O586   2.057       .  S
Cd584      O2236   2.137       .  S
Cd584       O587   1.969       .  S
Cd585       O589   2.103       .  S
Cd585       O598   2.114       .  S
Cd585       O587   1.996       .  S
O586        C596   1.270       .  A
O587       Cd588   1.982       .  S
Cd588       O590   2.076       .  S
Cd588      O2239   2.024       .  S
O589        C596   1.284       .  A
C591        O595   1.261       .  A
C591        C623   1.456       .  S
C592        C707   1.483       .  S
C594        C642   1.472       .  S
C596        C686   1.473       .  S
C597        O598   1.285       .  A
O599        C615   1.272       .  A
O599      Zn1433   1.974       .  S
C600        O616   1.271       .  A
C600        O613   1.288       .  A
O601        C614   1.273       .  A
O601       Cd608   2.116       .  S
O602        C620   1.270       .  A
O602       Cd611   2.059       .  S
O603        C617   1.272       .  A
O603       Cd607   2.021       .  S
O604        C615   1.269       .  A
O604      Cd1435   2.076       .  S
Zn605       O616   2.007       .  S
Zn605       O618   1.929       .  S
Zn605      O1427   1.974   1_545  S
Zn605       O610   1.863       .  S
O606        C617   1.293       .  A
O606       Cd611   2.140       .  S
Cd607       O609   2.042       .  S
Cd607      O1432   2.076   1_545  S
Cd607       O610   1.983       .  S
Cd608       O612   2.114       .  S
Cd608       O621   2.100       .  S
Cd608       O610   1.997       .  S
O609        C619   1.271       .  A
O610       Cd611   1.970       .  S
Cd611       O613   2.146       .  S
O612        C619   1.285       .  A
C614        O618   1.261       .  A
C614        C661   1.456       .  S
C617        C666   1.473       .  S
C619        C643   1.471       .  S
C620        O621   1.283       .  A
O622        C638   1.271       .  A
O622       Zn628   2.009       .  S
C623        O639   1.273       .  A
C623        O636   1.269       .  A
O624        C637   1.273       .  A
O624       Cd631   2.118       .  S
O625        C643   1.271       .  A
O625       Cd634   2.042       .  S
O626        C640   1.293       .  A
O626       Cd630   2.142       .  S
O627        C638   1.289       .  A
O627       Cd630   2.147       .  S
Zn628       O639   1.974       .  S
Zn628       O641   1.929       .  S
Zn628       O633   1.862       .  S
O629        C640   1.272       .  A
O629       Cd634   2.021       .  S
Cd630      O1460   2.058   1_545  S
Cd630       O633   1.970       .  S
Cd631       O644   2.114       .  S
Cd631      O1463   2.099   1_545  S
Cd631       O633   1.997       .  S
O632        C642   1.270       .  A
O632      Cd1458   2.058       .  S
O633       Cd634   1.983       .  S
Cd634       O636   2.075       .  S
O635        C642   1.283       .  A
O635      Cd1459   2.099       .  S
C637        O641   1.260       .  A
C637        C669   1.457       .  S
C638        C799   1.485       .  S
C640        C688   1.473       .  S
C643        O644   1.285       .  A
O645       C2317   1.273       .  A
O645       Zn651   1.975       .  S
C646        O662   1.272       .  A
C646        O659   1.289       .  A
C646       C1336   1.486   1_545  S
O647        C660   1.273       .  A
O647      Cd1482   2.120       .  S
O648        C666   1.270       .  A
O648       Cd657   2.055       .  S
O649        C663   1.272       .  A
O649       Cd653   2.020       .  S
O650        C661   1.269       .  A
O650      Cd2309   2.072   1_455  S
Zn651       O662   2.013       .  S
Zn651      O1492   1.930   1_545  S
Zn651       O656   1.861       .  S
O652        C663   1.293       .  A
O652       Cd657   2.142       .  S
Cd653       O655   2.041       .  S
Cd653      O2306   2.072       .  S
Cd653       O656   1.982       .  S
Cd654       O658   2.120       .  S
Cd654       O667   2.104       .  S
Cd654      O1475   2.120   1_545  S
Cd654       O656   1.997       .  S
O655        C665   1.270       .  A
O656       Cd657   1.970       .  S
Cd657       O659   2.147       .  S
O658        C665   1.286       .  A
C660        O664   1.260       .  A
C661       O2301   1.273       .  A
O664      Zn1479   1.930       .  S
C665        C689   1.473       .  S
C666        O667   1.284       .  A
O668        C684   1.272       .  A
O668       Zn674   2.014       .  S
C669        O685   1.273       .  A
C669        O682   1.269       .  A
O670        C683   1.273       .  A
O670       Cd677   2.120       .  S
O671        C689   1.270       .  A
O671       Cd680   2.041       .  S
O672       C1514   1.293   1_545  A
O672       Cd676   2.141       .  S
O673        C684   1.288       .  A
O673       Cd676   2.145       .  S
Zn674       O685   1.976       .  S
Zn674       O687   1.930       .  S
Zn674       O679   1.862       .  S
O675        C686   1.272       .  A
O675      Cd1508   2.021       .  S
Cd676      O2334   2.055       .  S
Cd676       O679   1.970       .  S
Cd677       O690   2.121       .  S
Cd677      O2337   2.105       .  S
Cd677       O679   1.998       .  S
O678        C688   1.270       .  A
O678      Cd2332   2.055   1_455  S
O679       Cd680   1.983       .  S
Cd680       O682   2.073       .  S
Cd680      O1503   2.021   1_545  S
O681        C688   1.285       .  A
O681      Cd2333   2.105   1_455  S
C683        O687   1.260       .  A
C684        C753   1.486       .  S
C686       O1500   1.293       .  A
C689        O690   1.286       .  A
O691        C707   1.271       .  A
O691       Zn697   2.009       .  S
C692        O708   1.273       .  A
C692        O705   1.270       .  A
C692        C798   1.457       .  S
O693        C706   1.273       .  A
O693       Cd700   2.117       .  S
O694        C712   1.271       .  A
O694       Cd703   2.044       .  S
O695        C709   1.293       .  A
O695       Cd699   2.138       .  S
O696        C707   1.288       .  A
O696       Cd699   2.143       .  S
Zn697       O708   1.975       .  S
Zn697       O710   1.930       .  S
Zn697       O702   1.861       .  S
O698        C709   1.272       .  A
O698       Cd703   2.023       .  S
Cd699       O701   2.057       .  S
Cd699       O702   1.970       .  S
Cd700       O704   2.102       .  S
Cd700       O713   2.116       .  S
Cd700       O702   1.997       .  S
O701        C711   1.270       .  A
O702       Cd703   1.983       .  S
Cd703       O705   2.076       .  S
O704        C711   1.284       .  A
C706        O710   1.261       .  A
C706        C738   1.456       .  S
C709        C757   1.473       .  S
C711        C801   1.473       .  S
C712        O713   1.286       .  A
C712        C734   1.473   1_554  S
O714        C730   1.273       .  A
O714       Zn720   1.976       .  S
C715        O731   1.271       .  A
C715        O728   1.288       .  A
O716        C729   1.273       .  A
O716       Cd723   2.117       .  S
O717        C735   1.270       .  A
O717       Cd726   2.056       .  S
O718        C732   1.272       .  A
O718       Cd722   2.022       .  S
O719        C730   1.269       .  A
O719       Cd722   2.074       .  S
Zn720       O731   2.011       .  S
Zn720       O733   1.930       .  S
Zn720       O725   1.860       .  S
O721        C732   1.293       .  A
O721       Cd726   2.139       .  S
Cd722       O724   2.044       .  S
Cd722       O725   1.982       .  S
Cd723       O727   2.116       .  S
Cd723       O736   2.102       .  S
Cd723       O725   1.996       .  S
O724        C734   1.271       .  A
O725       Cd726   1.970       .  S
Cd726       O728   2.145       .  S
O727        C734   1.285       .  A
C729        O733   1.261       .  A
C729        C776   1.456       .  S
C730        C821   1.457       .  S
C732        C781   1.473       .  S
C735        O736   1.284       .  A
C735        C824   1.472       .  S
O737        C753   1.271       .  A
O737       Zn743   2.011       .  S
C738        O754   1.273       .  A
C738        O751   1.269       .  A
O739        C752   1.273       .  A
O739      Cd2402   2.118       .  S
O740        C758   1.271       .  A
O740       Cd749   2.042       .  S
O741        C755   1.293       .  A
O741       Cd745   2.141       .  S
O742       C2409   1.289   1_455  A
O742       Cd745   2.147       .  S
Zn743       O754   1.975       .  S
Zn743       O756   1.930       .  S
Zn743      O2404   1.861       .  S
O744        C755   1.272       .  A
O744       Cd749   2.021       .  S
Cd745       O747   2.058       .  S
Cd745       O748   1.970       .  S
Cd746       O750   2.101       .  S
Cd746       O759   2.116       .  S
Cd746      O2395   2.118   1_455  S
Cd746       O748   1.997       .  S
O747        C757   1.270       .  A
O748      Zn2399   1.861   1_455  S
O748       Cd749   1.983       .  S
Cd749      O2407   2.074   1_455  S
O750        C757   1.284       .  A
O751      Cd2405   2.074       .  S
C752        O756   1.260       .  A
C752        C784   1.457       .  S
C753       O2398   1.289       .  A
C755        C803   1.473       .  S
C758        O759   1.286       .  A
C758       C2436   1.472   1_554  S
O760        C776   1.273       .  A
O760       Zn766   1.974       .  S
C761        O777   1.271       .  A
C761       O2430   1.288       .  A
O762        C775   1.273       .  A
O762       Cd769   2.119   1_455  S
O763        C781   1.270       .  A
O763       Cd772   2.057       .  S
O764        C778   1.272       .  A
O764      Cd2424   2.023       .  S
O765        C776   1.269       .  A
O765       Cd768   2.074       .  S
Zn766       O777   2.011       .  S
Zn766       O779   1.930       .  S
Zn766       O771   1.861       .  S
O767        C778   1.293       .  A
O767       Cd772   2.140       .  S
Cd768      O2420   2.023   1_455  S
Cd768      O2426   2.042       .  S
Cd768       O771   1.983       .  S
Cd769      O2429   2.116   1_655  S
Cd769      O2438   2.101       .  S
Cd769       O771   1.997   1_655  S
O770        C780   1.271       .  A
O770      Cd2424   2.042       .  S
O771      Cd2428   1.970   1_455  S
Cd772       O774   2.144       .  S
Cd772      O2427   1.970       .  S
O773        C780   1.286       .  A
O773      Cd2425   2.116       .  S
O774       C2417   1.288       .  A
C775        O779   1.260       .  A
C775        C822   1.457       .  S
C778        C827   1.474       .  S
C780       C2414   1.472   1_556  S
C781        O782   1.284       .  A
O782      Cd2425   2.101       .  S
O783        C799   1.272       .  A
O783       Zn789   2.013       .  S
C784        O800   1.273       .  A
C784        O797   1.269       .  A
O785        C798   1.273       .  A
O785       Cd792   2.119   1_545  S
O786        C804   1.271       .  A
O786      Cd1623   2.042       .  S
O787        C801   1.293       .  A
O787       Cd791   2.139       .  S
O788       C1627   1.288       .  A
O788       Cd791   2.144       .  S
Zn789       O800   1.977       .  S
Zn789       O802   1.930       .  S
Zn789       O794   1.861       .  S
O790        C801   1.272       .  A
O790      Cd1623   2.022       .  S
Cd791       O793   2.056       .  S
Cd791      O1622   1.970       .  S
Cd792      O1624   2.104       .  S
Cd792      O1633   2.118   1_565  S
Cd792       O794   1.997   1_565  S
O793        C803   1.270       .  A
O794       Cd795   1.983       .  S
O794      Cd1619   1.970   1_545  S
Cd795       O797   2.074       .  S
Cd795      O1614   2.042   1_545  S
Cd795      O1618   2.022   1_545  S
O796        C803   1.284       .  A
O796      Cd1620   2.104       .  S
C798        O802   1.260       .  A
C799       O1616   1.288       .  A
C804        O805   1.286       .  A
C804       C1654   1.473   1_554  S
O805      Cd1620   2.118       .  S
O806        C822   1.273       .  A
O806       Zn812   1.976       .  S
C807        O823   1.271       .  A
C807       O1648   1.288       .  A
O808        C821   1.273       .  A
O808      Cd1643   2.118       .  S
O809        C827   1.270       .  A
O809       Cd818   2.057       .  S
O810        C824   1.272       .  A
O810       Cd814   2.021       .  S
O811        C822   1.269       .  A
O811      Cd1642   2.074       .  S
Zn812       O823   2.010       .  S
Zn812       O825   1.930       .  S
Zn812      O1645   1.863       .  S
O813        C824   1.293       .  A
O813       Cd818   2.139       .  S
Cd814       O816   2.042       .  S
Cd814      O1639   2.074   1_545  S
Cd814       O817   1.983       .  S
Cd815       O819   2.118       .  S
Cd815       O828   2.104       .  S
Cd815      O1636   2.118   1_545  S
Cd815       O817   1.997       .  S
O816        C826   1.271       .  A
O817      Zn1640   1.863   1_545  S
O817       Cd818   1.970       .  S
Cd818       O820   2.144       .  S
O819        C826   1.286       .  A
O820       C1635   1.288   1_545  A
C821        O825   1.261       .  A
C826       C1632   1.473   1_556  S
C827        O828   1.284       .  A
O829        C845   1.273       .  A
O829       Zn835   1.975       .  S
C830        O846   1.271       .  A
C830        O843   1.288       .  A
C830       C1152   1.485       .  S
O831        C844   1.273       .  A
O831       Cd838   2.120       .  S
O832        C850   1.270       .  A
O833        C847   1.272       .  A
O833      Cd2493   2.021   1_455  S
O834        C845   1.269       .  A
O834       Cd837   2.072       .  S
Zn835       O846   2.012       .  S
Zn835       O848   1.930       .  S
Zn835       O840   1.861       .  S
O836       C2503   1.293       .  A
O836       Cd841   2.141       .  S
Cd837      O2489   2.021       .  S
Cd837       O839   2.040       .  S
Cd837       O840   1.982       .  S
Cd838       O842   2.120       .  S
Cd838       O840   1.998       .  S
O839        C849   1.270       .  A
O840       Cd841   1.970       .  S
Cd841       O843   2.145       .  S
O842        C849   1.286       .  A
C844        O848   1.260       .  A
C844        C937   1.458       .  S
C845        C890   1.456       .  S
C847       O2492   1.293       .  A
C847        C942   1.473       .  S
C849        C873   1.473       .  S
C850        O851   1.284       .  A
C850        C893   1.473       .  S
O852        C868   1.271       .  A
O852       Zn858   2.012       .  S
C853        O866   1.269       .  A
C853        C913   1.456       .  S
O854        C867   1.273       .  A
O854      Cd2517   2.120   1_455  S
O855        C873   1.270       .  A
O855       Cd864   2.040       .  S
O856        C870   1.293       .  A
O856       Cd860   2.142       .  S
O857        C868   1.289       .  A
O857       Cd860   2.146       .  S
Zn858       O869   1.976       .  S
Zn858      O2527   1.929       .  S
Zn858       O863   1.861       .  S
O859        C870   1.272       .  A
O859       Cd864   2.019       .  S
Cd860       O862   2.055       .  S
Cd860       O863   1.970       .  S
Cd861      O2510   2.120       .  S
Cd861       O865   2.104       .  S
Cd861       O874   2.120       .  S
Cd861       O863   1.998       .  S
O862        C872   1.270       .  A
O863       Cd864   1.982       .  S
O865        C872   1.284       .  A
C867        O871   1.260       .  A
C867        C945   1.457       .  S
C868       C2662   1.485       .  S
C870        C964   1.473       .  S
O871      Zn2514   1.929   1_455  S
C872        C916   1.473       .  S
C873        O874   1.286       .  A
O875        C891   1.273       .  A
O875       Zn881   1.975       .  S
C876        O892   1.271       .  A
C876        O889   1.288       .  A
C876       C1198   1.484       .  S
O877        C890   1.273       .  A
O877       Cd884   2.116       .  S
O878        C896   1.270       .  A
O878      Cd2543   2.058   1_455  S
O879        C893   1.272       .  A
O879       Cd883   2.021       .  S
O880        C891   1.270       .  A
O880       Cd883   2.075       .  S
Zn881       O892   2.007       .  S
Zn881       O894   1.930       .  S
Zn881       O886   1.862       .  S
O882        C893   1.293       .  A
O882       Cd887   2.140       .  S
Cd883       O885   2.043       .  S
Cd883       O886   1.982       .  S
Cd884       O888   2.112       .  S
Cd884      O2553   2.099       .  S
Cd884       O886   1.996       .  S
O885        C895   1.271       .  A
O886       Cd887   1.969       .  S
Cd887      O2534   2.058       .  S
Cd887       O889   2.146       .  S
O888        C895   1.285       .  A
C890        O894   1.261       .  A
C891        C936   1.457       .  S
C895        C919   1.471       .  S
C896        O897   1.283       .  A
C896        C939   1.473       .  S
O897      Cd2540   2.099   1_455  S
O898        C914   1.271       .  A
O898       Zn904   2.008       .  S
C899        O915   1.273       .  A
C899        O912   1.270       .  A
C899        C959   1.457       .  S
O900        C913   1.273       .  A
O900       Cd907   2.117       .  S
O901        C919   1.271       .  A
O901       Cd910   2.042       .  S
O902        C916   1.293       .  A
O902       Cd906   2.139       .  S
O903        C914   1.288       .  A
O903       Cd906   2.145       .  S
Zn904      O2571   1.975       .  S
Zn904       O917   1.930       .  S
Zn904       O909   1.863       .  S
O905        C916   1.272       .  A
O905       Cd910   2.021       .  S
Cd906       O908   2.060       .  S
Cd906       O909   1.970       .  S
Cd907       O911   2.100       .  S
Cd907       O920   2.113       .  S
Cd907       O909   1.997       .  S
O908        C918   1.270       .  A
O909       Cd910   1.983       .  S
Cd910      O2568   2.076       .  S
O911        C918   1.283       .  A
O912      Cd2566   2.076   1_455  S
C913        O917   1.261       .  A
C914       C1052   1.484       .  S
O915      Zn2560   1.975   1_455  S
C918        C962   1.473       .  S
C919        O920   1.285       .  A
O921        C937   1.273       .  A
O921       Zn927   1.976       .  S
C922        O938   1.271       .  A
C922        O935   1.288       .  A
C922       C1106   1.483       .  S
O923        C936   1.273       .  A
O923       Cd930   2.117       .  S
O924        C942   1.270       .  A
O924       Cd933   2.058       .  S
O925        C939   1.273       .  A
O926        C937   1.269       .  A
O926       Cd929   2.076       .  S
Zn927       O938   2.011       .  S
Zn927       O940   1.932       .  S
Zn927       O932   1.861       .  S
O928        C939   1.292       .  A
Cd929       O931   2.044       .  S
Cd929       O932   1.982       .  S
Cd930       O934   2.115       .  S
Cd930       O943   2.102       .  S
Cd930       O932   1.997       .  S
O931        C941   1.271       .  A
O932       Cd933   1.969       .  S
Cd933       O935   2.142       .  S
O934        C941   1.285       .  A
C936        O940   1.260       .  A
C941        C965   1.472       .  S
C942        O943   1.284       .  A
O944        C960   1.271       .  A
O944       Zn950   2.012       .  S
C945        O961   1.273       .  A
C945        O958   1.270       .  A
O946        C959   1.273       .  A
O947        C965   1.271       .  A
O947       Cd956   2.044       .  S
O948        C962   1.292       .  A
O948       Cd952   2.138       .  S
O949        C960   1.288       .  A
O949       Cd952   2.142       .  S
Zn950       O961   1.975       .  S
Zn950       O955   1.860       .  S
O951        C962   1.273       .  A
O951       Cd956   2.025       .  S
Cd952       O954   2.057       .  S
Cd952       O955   1.969       .  S
Cd953       O957   2.102       .  S
Cd953       O966   2.115       .  S
Cd953       O955   1.996       .  S
O954        C964   1.270       .  A
O955       Cd956   1.982       .  S
Cd956       O958   2.075       .  S
O957        C964   1.284       .  A
C959        O963   1.260       .  A
C965        O966   1.286       .  A
O967        C983   1.273       .  A
O967       Zn973   1.975       .  S
C968        O984   1.271       .  A
C968        O981   1.288       .  A
C968       C1543   1.485       .  S
O969        C982   1.273       .  A
O969       Cd976   2.119       .  S
O970        C988   1.270       .  A
O970       Cd979   2.057       .  S
O971        C985   1.272       .  A
O971      Cd2631   2.020       .  S
O972        C983   1.269       .  A
O972       Cd975   2.074       .  S
Zn973       O984   2.010       .  S
Zn973       O986   1.930       .  S
Zn973       O978   1.861       .  S
O974       C2641   1.293   1_455  A
O974       Cd979   2.141       .  S
Cd975      O2627   2.020   1_455  S
Cd975       O977   2.041       .  S
Cd975       O978   1.982       .  S
Cd976       O980   2.116       .  S
Cd976       O989   2.101       .  S
Cd976       O978   1.997       .  S
O977        C987   1.271       .  A
O978       Cd979   1.970       .  S
Cd979       O981   2.146       .  S
O980        C987   1.286       .  A
C982        O986   1.261       .  A
C982       C1029   1.457       .  S
C983       C1074   1.456       .  S
C985       O2630   1.293       .  A
C985       C1034   1.473       .  S
C987       C1011   1.472       .  S
C988        O989   1.284       .  A
C988       C1077   1.473       .  S
O990       C1006   1.271       .  A
O990       Zn996   2.010       .  S
C991       O1007   1.273       .  A
C991       O1004   1.269       .  A
C991       C1097   1.456       .  S
O992       C1005   1.273       .  A
O992      Cd2655   2.118       .  S
O993       C1011   1.271       .  A
O993      Cd1002   2.041       .  S
O994       C1008   1.293       .  A
O994       Cd998   2.141       .  S
O995       C1006   1.289       .  A
O995       Cd998   2.147       .  S
Zn996      O1007   1.975       .  S
Zn996      O2665   1.930       .  S
Zn996      O1001   1.862       .  S
O997       C1008   1.272       .  A
O997      Cd1002   2.020       .  S
Cd998      O1000   2.057       .  S
Cd998      O1001   1.970       .  S
Cd999      O2648   2.118   1_455  S
Cd999      O1003   2.101       .  S
Cd999      O1012   2.115       .  S
Cd999      O1001   1.997       .  S
O1000      C1010   1.270       .  A
O1001     Cd1002   1.982       .  S
Cd1002     O1004   2.074       .  S
O1003      C1010   1.284       .  A
C1005      O1009   1.261       .  A
C1005      C1037   1.457       .  S
C1006      C2524   1.485   1_455  S
C1008      C1056   1.473       .  S
O1009     Zn2652   1.930       .  S
C1010      C1100   1.473       .  S
C1011      O1012   1.286       .  A
O1013      C1029   1.273       .  A
O1013     Zn1019   1.976       .  S
C1014      O1030   1.271       .  A
C1014      O1027   1.288       .  A
C1014      C1635   1.485       .  S
O1015      C1028   1.273       .  A
O1015     Cd1022   2.119       .  S
O1016      C1034   1.270       .  A
O1017      C1031   1.272       .  A
O1017     Cd1021   2.022       .  S
O1018      C1029   1.269       .  A
O1018     Cd1021   2.074       .  S
Zn1019     O1030   2.012       .  S
Zn1019     O1032   1.930       .  S
Zn1019     O1024   1.862       .  S
O1020      C1031   1.293       .  A
O1020     Cd1025   2.140       .  S
Cd1021     O1023   2.042       .  S
Cd1021     O1024   1.983       .  S
Cd1022     O1026   2.119       .  S
Cd1022     O1024   1.997       .  S
O1023      C1033   1.271       .  A
O1024     Cd1025   1.970       .  S
Cd1025     O1027   2.144       .  S
O1026      C1033   1.286       .  A
C1028      O1032   1.260       .  A
C1028      C1075   1.457       .  S
C1031      C1080   1.473       .  S
C1033      C1057   1.473       .  S
C1034      O1035   1.284       .  A
O1036      C1052   1.272       .  A
O1036     Zn1042   2.012       .  S
C1037      O1053   1.273       .  A
C1037      O1050   1.269       .  A
O1038      C1051   1.273       .  A
O1038     Cd1045   2.119       .  S
O1039      C1057   1.271       .  A
O1039     Cd1048   2.042       .  S
O1040      C1054   1.293       .  A
O1040     Cd1044   2.139       .  S
O1041      C1052   1.288       .  A
O1041     Cd1044   2.143       .  S
Zn1042     O1055   1.930       .  S
Zn1042     O1047   1.861       .  S
O1043      C1054   1.272       .  A
O1043     Cd1048   2.022       .  S
Cd1044     O1046   2.055       .  S
Cd1044     O1047   1.970       .  S
Cd1045     O1049   2.103       .  S
Cd1045     O1058   2.118       .  S
Cd1045     O1047   1.997       .  S
O1046      C1056   1.270       .  A
O1047     Cd1048   1.982       .  S
O1049      C1056   1.284       .  A
C1051      O1055   1.260       .  A
C1051      C1083   1.457       .  S
C1054      C1102   1.473       .  S
C1057      O1058   1.286       .  A
O1059      C1075   1.273       .  A
O1059     Zn1065   1.976       .  S
C1060      O1076   1.271       .  A
C1060      O1073   1.288       .  A
C1060      C1589   1.484       .  S
O1061      C1074   1.273       .  A
O1061     Cd1068   2.117       .  S
O1062      C1080   1.270       .  A
O1062     Cd2727   2.058       .  S
O1063      C1077   1.272       .  A
O1064      C1075   1.269       .  A
O1064     Cd1067   2.075       .  S
Zn1065     O1076   2.010       .  S
Zn1065     O1078   1.930       .  S
Zn1065     O1070   1.861       .  S
O1066      C1077   1.293       .  A
Cd1067     O1069   2.044       .  S
Cd1067     O1070   1.982       .  S
Cd1068     O1072   2.114       .  S
Cd1068     O2737   2.101   1_455  S
Cd1068     O1070   1.997       .  S
O1069      C1079   1.271       .  A
O1070     Cd1071   1.970       .  S
Cd1071     O2718   2.058   1_455  S
Cd1071     O1073   2.144       .  S
O1072      C1079   1.285       .  A
C1074      O1078   1.261       .  A
C1079      C1103   1.472       .  S
C1080      O1081   1.284       .  A
O1081     Cd2724   2.101       .  S
O1082      C1098   1.271       .  A
O1082     Zn1088   2.008       .  S
C1083      O2755   1.273       .  A
C1083      O1096   1.270       .  A
O1084      C1097   1.273       .  A
O1085      C1103   1.271       .  A
O1085     Cd1094   2.044       .  S
O1086      C1100   1.293       .  A
O1086     Cd1090   2.138       .  S
O1087      C1098   1.288       .  A
O1087     Cd1090   2.143       .  S
Zn1088     O1099   1.974   1_455  S
Zn1088     O1093   1.861       .  S
O1089      C1100   1.272       .  A
O1089     Cd1094   2.023       .  S
Cd1090     O1092   2.059       .  S
Cd1090     O1093   1.970       .  S
Cd1091     O1095   2.101       .  S
Cd1091     O1104   2.114       .  S
Cd1091     O1093   1.997       .  S
O1092      C1102   1.270       .  A
O1093     Cd1094   1.983       .  S
Cd1094     O2752   2.076   1_455  S
O1095      C1102   1.284       .  A
O1096     Cd2750   2.076       .  S
C1097      O1101   1.261       .  A
O1099      C2739   1.273       .  A
C1103      O1104   1.285       .  A
O1105      C1121   1.273       .  A
O1105     Zn1111   1.974       .  S
C1106      O1122   1.271       .  A
C1106      O1119   1.288       .  A
O1107      C1120   1.273       .  A
O1107     Cd1114   2.118       .  S
O1108      C1126   1.270       .  A
O1108     Cd1117   2.058       .  S
O1109      C1123   1.272       .  A
O1109     Cd1113   2.023       .  S
O1110      C1121   1.270       .  A
O1110     Cd1113   2.076       .  S
Zn1111     O1122   2.009       .  S
Zn1111     O1124   1.930       .  S
Zn1111     O1116   1.861       .  S
O1112      C1123   1.293       .  A
O1112     Cd1117   2.138       .  S
Cd1113     O1115   2.043       .  S
Cd1113     O1116   1.983       .  S
Cd1114     O1118   2.116       .  S
Cd1114     O1127   2.102       .  S
Cd1114     O1116   1.997       .  S
O1115      C1125   1.271       .  A
O1116     Cd1117   1.970       .  S
Cd1117     O1119   2.143       .  S
O1118      C1125   1.286       .  A
C1120      O1124   1.260       .  A
C1120      C1167   1.457       .  S
C1121      C1212   1.457       .  S
C1123      C1172   1.473       .  S
C1125      C1149   1.472       .  S
C1126      O1127   1.284       .  A
C1126      C1215   1.473       .  S
O1128      C1144   1.271       .  A
O1128     Zn1134   2.011       .  S
C1129      O1145   1.273       .  A
C1129      O1142   1.269       .  A
C1129      C1235   1.457       .  S
O1130      C1143   1.273       .  A
O1130     Cd1137   2.117       .  S
O1131      C1149   1.271       .  A
O1131     Cd1140   2.043       .  S
O1132      C1146   1.293       .  A
O1132     Cd1136   2.140       .  S
O1133      C1144   1.288       .  A
O1133     Cd1136   2.145       .  S
Zn1134     O1145   1.977       .  S
Zn1134     O1147   1.930       .  S
Zn1134     O1139   1.862       .  S
O1135      C1146   1.272       .  A
O1135     Cd1140   2.021       .  S
Cd1136     O1138   2.057       .  S
Cd1136     O1139   1.970       .  S
Cd1137     O1141   2.102       .  S
Cd1137     O1150   2.116       .  S
Cd1137     O1139   1.997       .  S
O1138      C1148   1.270       .  A
O1139     Cd1140   1.983       .  S
Cd1140     O1142   2.074       .  S
O1141      C1148   1.284       .  A
C1143      O1147   1.261       .  A
C1143      C1175   1.456       .  S
C1144      C1374   1.485       .  S
C1146      C1194   1.472       .  S
C1148      C1238   1.473       .  S
C1149      O1150   1.286       .  A
O1151      C1167   1.273       .  A
O1151     Zn1157   1.976       .  S
C1152      O1168   1.271       .  A
O1153      C1166   1.273       .  A
O1154      C1172   1.270       .  A
O1154     Cd1163   2.058       .  S
O1155      C1169   1.272       .  A
O1155     Cd1159   2.021       .  S
O1156      C1167   1.269       .  A
Zn1157     O1168   2.010       .  S
Zn1157     O1170   1.930       .  S
Zn1157     O1162   1.862       .  S
O1158      C1169   1.293       .  A
O1158     Cd1163   2.140       .  S
Cd1159     O1161   2.042       .  S
Cd1160     O1164   2.115       .  S
Cd1160     O1173   2.101       .  S
O1161      C1171   1.271       .  A
Cd1163     O1165   2.146       .  S
O1164      C1171   1.286       .  A
C1166      O1170   1.261       .  A
C1166      C1213   1.457       .  S
C1169      C1218   1.473       .  S
C1172      O1173   1.284       .  A
O1174      C1190   1.271       .  A
O1174     Zn1180   2.010       .  S
C1175      O1191   1.273       .  A
C1175      O1188   1.269       .  A
O1176      C1189   1.273       .  A
O1176     Cd1183   2.118   1_565  S
O1177      C1195   1.271       .  A
O1178      C1192   1.293       .  A
O1178     Cd1182   2.139       .  S
O1179     Cd1182   2.144       .  S
Zn1180     O1191   1.975       .  S
Zn1180     O1193   1.930       .  S
Zn1180     O1185   1.860       .  S
O1181      C1192   1.272       .  A
Cd1182     O1184   2.056       .  S
Cd1183     O1185   1.996   1_545  S
O1184      C1194   1.270       .  A
O1185     Cd1186   1.982       .  S
Cd1186     O1188   2.074       .  S
O1187      C1194   1.284       .  A
C1189      O1193   1.260       .  A
C1189      C1221   1.457       .  S
C1190      C1328   1.484       .  S
C1192      C1240   1.473       .  S
C1195      O1196   1.286       .  A
O1197      C1213   1.273       .  A
O1197     Zn1203   1.976       .  S
C1198      O1214   1.271       .  A
C1198      O2867   1.288       .  A
O1199      C1212   1.273       .  A
O1199     Cd1206   2.119       .  S
O1200      C1218   1.270       .  A
O1200     Cd1209   2.055       .  S
O1201      C1215   1.272       .  A
O1201     Cd2861   2.021       .  S
O1202      C1213   1.269       .  A
O1202     Cd1205   2.074       .  S
Zn1203     O1214   2.011       .  S
Zn1203     O1216   1.930       .  S
Zn1203     O1208   1.861       .  S
O1204      C1215   1.293       .  A
O1204     Cd1209   2.140       .  S
Cd1205     O2857   2.021       .  S
Cd1205     O2863   2.041       .  S
Cd1205     O1208   1.982       .  S
Cd1206     O2866   2.116       .  S
Cd1206     O2875   2.103       .  S
Cd1206     O1208   1.997       .  S
O1207      C1217   1.271       .  A
O1207     Cd2861   2.041       .  S
O1208     Cd2865   1.969       .  S
Cd1209     O1211   2.143   1_455  S
Cd1209     O2864   1.969   1_455  S
O1210      C1217   1.286       .  A
O1210     Cd2862   2.116       .  S
O1211      C2854   1.288       .  A
C1212      O1216   1.260       .  A
C1217      C2897   1.472   1_455  S
C1218      O1219   1.284       .  A
O1219     Cd2862   2.103       .  S
O1220      C1236   1.271       .  A
O1220     Zn1226   2.010       .  S
C1221      O1237   1.273       .  A
C1221      O1234   1.269       .  A
O1222      C1235   1.273       .  A
O1222     Cd2885   2.118   1_455  S
O1223      C1241   1.271       .  A
O1223     Cd1232   2.041       .  S
O1224      C1238   1.293       .  A
O1224     Cd1228   2.140       .  S
O1225      C2892   1.288       .  A
O1225     Cd1228   2.144       .  S
Zn1226     O1237   1.974       .  S
Zn1226     O1239   1.930       .  S
Zn1226     O1231   1.862       .  S
O1227      C1238   1.272       .  A
O1227     Cd1232   2.022       .  S
Cd1228     O1230   2.058       .  S
Cd1228     O2887   1.970       .  S
Cd1229     O2878   2.118       .  S
Cd1229     O1233   2.102       .  S
Cd1229     O1242   2.117       .  S
Cd1229     O2887   1.997       .  S
O1230      C1240   1.270       .  A
O1231     Cd2884   1.970   1_455  S
O1231     Cd2885   1.997   1_455  S
O1231     Cd2888   1.983   1_455  S
Cd1232     O2890   2.075       .  S
Cd1232     O2887   1.983       .  S
O1233      C1240   1.284       .  A
O1234     Cd2888   2.075   1_455  S
C1235      O1239   1.260       .  A
C1236      O2881   1.288       .  A
C1236      C1282   1.484       .  S
C1241      O1242   1.286       .  A
C1241      C2873   1.472       .  S
O1243      C1259   1.273       .  A
O1243     Zn2905   1.977       .  S
C1244      O1260   1.272       .  A
C1244      O1257   1.288       .  A
C1244      C1428   1.484       .  S
O1245      C1258   1.273       .  A
O1245     Cd1252   2.118       .  S
O1246      C1264   1.270       .  A
O1246     Cd1255   2.055       .  S
O1247      C1261   1.272       .  A
O1247     Cd1251   2.023       .  S
O1248      C1259   1.269       .  A
O1248     Cd2907   2.075       .  S
Zn1249     O2899   1.977   1_455  S
Zn1249     O1260   2.013       .  S
Zn1249     O1262   1.931       .  S
Zn1249     O1254   1.861       .  S
O1250      C1261   1.292       .  A
O1250     Cd1255   2.138       .  S
Cd1251     O2904   2.075   1_455  S
Cd1251     O1253   2.043       .  S
Cd1251     O1254   1.982       .  S
Cd1252     O1256   2.117       .  S
Cd1252     O1265   2.105       .  S
Cd1252     O1254   1.997       .  S
O1253      C1263   1.271       .  A
O1254     Cd1255   1.970       .  S
Cd1255     O1257   2.141       .  S
O1256      C1263   1.286       .  A
C1258      O1262   1.260       .  A
C1258      C1305   1.457       .  S
C1259      C1350   1.458       .  S
C1261      C1310   1.473       .  S
C1263      C1287   1.473       .  S
C1264      O1265   1.285       .  A
C1264      C1353   1.473       .  S
O1266      C1282   1.271       .  A
O1266     Zn1272   2.011       .  S
C1267      O1283   1.273       .  A
C1267      O1280   1.269       .  A
C1267      C1373   1.458       .  S
O1268      C1281   1.273       .  A
O1268     Cd1275   2.118       .  S
O1269      C1287   1.271       .  A
O1269     Cd1278   2.043       .  S
O1270      C1284   1.293       .  A
O1270     Cd1274   2.138       .  S
O1271      C1282   1.288       .  A
O1271     Cd1274   2.143       .  S
Zn1272     O1283   1.977       .  S
Zn1272     O1285   1.931       .  S
Zn1272     O1277   1.862       .  S
O1273      C1284   1.272       .  A
O1273     Cd1278   2.022       .  S
Cd1274     O2932   2.057   1_455  S
Cd1274     O1277   1.970       .  S
Cd1275     O2935   2.104   1_455  S
Cd1275     O1288   2.118       .  S
Cd1275     O1277   1.997       .  S
O1276      C1286   1.270       .  A
O1276     Cd2930   2.057       .  S
O1277     Cd1278   1.983       .  S
Cd1278     O1280   2.075       .  S
O1279      C1286   1.284       .  A
O1279     Cd2931   2.104       .  S
C1281      O1285   1.261       .  A
C1281      C1313   1.457       .  S
C1284      C1332   1.472       .  S
C1286      C1376   1.474       .  S
C1287      O1288   1.286       .  A
O1289     Zn1295   1.974   1_545  S
C1290      O1306   1.271       .  A
C1290      O1303   1.288       .  A
C1290      C3038   1.483   1_455  S
O1291      C1304   1.273       .  A
O1291     Cd2954   2.117       .  S
O1292      C1310   1.270       .  A
O1292     Cd1301   2.059       .  S
O1293      C1307   1.272       .  A
O1293     Cd1297   2.023       .  S
O1294      C1305   1.270       .  A
Zn1295     O1306   2.007       .  S
Zn1295     O2964   1.930   1_455  S
Zn1295     O1300   1.861       .  S
O1296      C1307   1.293       .  A
O1296     Cd1301   2.139       .  S
Cd1297     O1299   2.043       .  S
Cd1297     O1300   1.982       .  S
Cd1298     O2947   2.117   1_455  S
Cd1298     O1302   2.114       .  S
Cd1298     O1311   2.099       .  S
Cd1298     O1300   1.997       .  S
O1299      C1309   1.271       .  A
O1300     Cd1301   1.969       .  S
Cd1301     O1303   2.144       .  S
O1302      C1309   1.285       .  A
C1304      O1308   1.261       .  A
C1304      C1351   1.456       .  S
C1307      C1356   1.473       .  S
O1308     Zn2951   1.930       .  S
C1309      C1333   1.472       .  S
C1310      O1311   1.283       .  A
O1312      C1328   1.271       .  A
O1312     Zn1318   2.009       .  S
C1313      O1329   1.273       .  A
C1313      O1326   1.270       .  A
O1314      C1327   1.273       .  A
O1314     Cd1321   2.116       .  S
O1315      C1333   1.271       .  A
O1315     Cd1324   2.043       .  S
O1316      C1330   1.293       .  A
O1316     Cd2976   2.139       .  S
O1317      C1328   1.288       .  A
O1317     Cd1320   2.145       .  S
Zn1318     O1329   1.975       .  S
Zn1318     O1331   1.930       .  S
Zn1318     O1323   1.860       .  S
O1319      C1330   1.272       .  A
O1319     Cd2980   2.022       .  S
Cd1320     O2972   2.139   1_455  S
Cd1320     O1323   1.969       .  S
Cd1321     O1334   2.113       .  S
Cd1321     O1323   1.996       .  S
O1322      C1332   1.270       .  A
O1323     Cd1324   1.982       .  S
Cd1324     O2975   2.022   1_455  S
Cd1324     O1326   2.075       .  S
O1325      C1332   1.284       .  A
C1327      O1331   1.261       .  A
C1327      C1359   1.456       .  S
C1330      C1378   1.473       .  S
C1333      O1334   1.285       .  A
O1335      C1351   1.273       .  A
O1335     Zn1341   1.976       .  S
C1336      O1352   1.271       .  A
C1336      O1349   1.289       .  A
O1337      C1350   1.273       .  A
O1338      C1356   1.270       .  A
O1338     Cd1347   2.057       .  S
O1339      C1353   1.271       .  A
O1339     Cd1343   2.019       .  S
O1340      C1351   1.269       .  A
O1340     Cd1343   2.072       .  S
Zn1341     O1352   2.011       .  S
Zn1341     O1346   1.862       .  S
O1342      C1353   1.293       .  A
O1342     Cd1347   2.143       .  S
Cd1343     O1345   2.040       .  S
Cd1343     O1346   1.983       .  S
Cd1344     O1348   2.117       .  S
Cd1344     O1357   2.102       .  S
Cd1344     O1346   1.997       .  S
O1345      C1355   1.270       .  A
O1346     Cd1347   1.970       .  S
Cd1347     O1349   2.148       .  S
O1348      C1355   1.286       .  A
C1350      O1354   1.260       .  A
C1355      C1379   1.472       .  S
C1356      O1357   1.284       .  A
O1358      C1374   1.271       .  A
O1358     Zn1364   2.012       .  S
C1359      O1375   1.273       .  A
C1359      O1372   1.269       .  A
O1360      C1373   1.273       .  A
O1360     Cd1367   2.120       .  S
O1361      C1379   1.270       .  A
O1361     Cd1370   2.041       .  S
O1362     Cd1366   2.142       .  S
O1363      C1374   1.289       .  A
O1363     Cd1366   2.146       .  S
Zn1364     O1375   1.974       .  S
Zn1364     O1377   1.930       .  S
Zn1364     O1369   1.862       .  S
O1365      C1376   1.272       .  A
Cd1366     O1368   2.056       .  S
Cd1366     O1369   1.970       .  S
Cd1367     O1371   2.102       .  S
Cd1367     O1380   2.117       .  S
Cd1367     O1369   1.997       .  S
O1368      C1378   1.270       .  A
O1369     Cd1370   1.983       .  S
Cd1370     O1372   2.073       .  S
O1371      C1378   1.284       .  A
C1373      O1377   1.260       .  A
C1379      O1380   1.286       .  A
O1381      C1397   1.273       .  A
O1381     Zn1387   1.976       .  S
C1382      O1398   1.271       .  A
C1382      O1395   1.288       .  A
C1382      C2946   1.483       .  S
O1383      C1396   1.273       .  A
O1383     Cd3046   2.117   1_455  S
O1384      C1402   1.270       .  A
O1384     Cd1393   2.057       .  S
O1385      C1399   1.273       .  A
O1385     Cd1389   2.025       .  S
O1386      C1397   1.270       .  A
O1386     Cd1389   2.076       .  S
Zn1387     O1398   2.011       .  S
Zn1387     O3056   1.932       .  S
Zn1387     O1392   1.860       .  S
O1388      C1399   1.292       .  A
O1388     Cd1393   2.137       .  S
Cd1389     O1391   2.045       .  S
Cd1389     O1392   1.982       .  S
Cd1390     O3039   2.117       .  S
Cd1390     O1394   2.114       .  S
Cd1390     O1403   2.102       .  S
Cd1390     O1392   1.996       .  S
O1391      C1401   1.271       .  A
O1392     Cd1393   1.969       .  S
Cd1393     O1395   2.141       .  S
O1394      C1401   1.285       .  A
C1396      O1400   1.261       .  A
C1396      C1443   1.456       .  S
C1397      C1488   1.458       .  S
C1399      C1448   1.473       .  S
O1400     Zn3043   1.932   1_455  S
C1401      C1425   1.472       .  S
C1402      O1403   1.284       .  A
C1402      C1491   1.473       .  S
O1404      C1420   1.271       .  A
O1404     Zn1410   2.010       .  S
C1405      O1421   1.273       .  A
C1405      O1418   1.269       .  A
C1405      C1511   1.458       .  S
O1406      C1419   1.273       .  A
O1406     Cd1413   2.116       .  S
O1407      C1425   1.271       .  A
O1407     Cd1416   2.045       .  S
O1408      C1422   1.292       .  A
O1408     Cd3068   2.137   1_455  S
O1409      C1420   1.288       .  A
O1409     Cd1412   2.142       .  S
Zn1410     O1421   1.977       .  S
Zn1410     O1423   1.931       .  S
Zn1410     O1415   1.861       .  S
O1411      C1422   1.273       .  A
O1411     Cd3072   2.024   1_455  S
Cd1412     O3064   2.137       .  S
Cd1412     O1414   2.057       .  S
Cd1412     O1415   1.969       .  S
Cd1413     O1417   2.103       .  S
Cd1413     O1426   2.114       .  S
Cd1413     O1415   1.996       .  S
O1414      C1424   1.270       .  A
O1415     Cd1416   1.982       .  S
Cd1416     O3067   2.024       .  S
Cd1416     O1418   2.076       .  S
O1417      C1424   1.284       .  A
C1419      O1423   1.261       .  A
C1419      C1451   1.456       .  S
C1420      C1535   1.483       .  S
C1422      C1470   1.472       .  S
C1424      C1514   1.473       .  S
C1425      O1426   1.285       .  A
O1427      C1443   1.272       .  A
C1428      O1444   1.271       .  A
C1428      O1441   1.288       .  A
O1429      C1442   1.273       .  A
O1429     Cd1436   2.116       .  S
O1430      C1448   1.270       .  A
O1430     Cd1439   2.059       .  S
O1431      C1445   1.272       .  A
O1431     Cd1435   2.021       .  S
O1432      C1443   1.269       .  A
Zn1433     O1444   2.007       .  S
Zn1433     O1446   1.929       .  S
Zn1433     O1438   1.863       .  S
O1434      C1445   1.293       .  A
O1434     Cd1439   2.140       .  S
Cd1435     O1437   2.042       .  S
Cd1435     O1438   1.983       .  S
Cd1436     O1440   2.114       .  S
Cd1436     O1449   2.100       .  S
Cd1436     O1438   1.997       .  S
O1437      C1447   1.271       .  A
O1438     Cd1439   1.970       .  S
Cd1439     O1441   2.146       .  S
O1440      C1447   1.285       .  A
C1442      O1446   1.261       .  A
C1442      C1489   1.456       .  S
C1445      C1494   1.473       .  S
C1447      C1471   1.471       .  S
C1448      O1449   1.283       .  A
O1450      C1466   1.271       .  A
O1450     Zn1456   2.009       .  S
C1451      O1467   1.273       .  A
C1451      O1464   1.269       .  A
O1452      C1465   1.273       .  A
O1452     Cd1459   2.118       .  S
O1453      C1471   1.271       .  A
O1453     Cd1462   2.042       .  S
O1454      C1468   1.293       .  A
O1454     Cd1458   2.142       .  S
O1455      C1466   1.289       .  A
O1455     Cd1458   2.147       .  S
Zn1456     O1467   1.974       .  S
Zn1456     O1469   1.929       .  S
Zn1456     O1461   1.862       .  S
O1457      C1468   1.272       .  A
O1457     Cd1462   2.021       .  S
Cd1458     O1461   1.970       .  S
Cd1459     O1472   2.114       .  S
Cd1459     O1461   1.997       .  S
O1460      C1470   1.270       .  A
O1461     Cd1462   1.983       .  S
Cd1462     O1464   2.075       .  S
O1463      C1470   1.283       .  A
C1465      O1469   1.260       .  A
C1465      C1497   1.457       .  S
C1466      C1627   1.485       .  S
C1468      C1516   1.473       .  S
C1471      O1472   1.285       .  A
O1473      C3145   1.273       .  A
O1473     Zn1479   1.975       .  S
C1474      O1490   1.272       .  A
C1474      O1487   1.289       .  A
O1475      C1488   1.273       .  A
O1476      C1494   1.270       .  A
O1476     Cd1485   2.055       .  S
O1477      C1491   1.272       .  A
O1477     Cd1481   2.020       .  S
O1478      C1489   1.269       .  A
O1478     Cd3137   2.072   1_455  S
Zn1479     O1490   2.013       .  S
Zn1479     O1484   1.861       .  S
O1480      C1491   1.293       .  A
O1480     Cd1485   2.142       .  S
Cd1481     O3134   2.072       .  S
Cd1481     O1483   2.041       .  S
Cd1481     O1484   1.982       .  S
Cd1482     O1486   2.120       .  S
Cd1482     O1495   2.104       .  S
Cd1482     O1484   1.997       .  S
O1483      C1493   1.270       .  A
O1484     Cd1485   1.970       .  S
Cd1485     O1487   2.147       .  S
O1486      C1493   1.286       .  A
C1488      O1492   1.260       .  A
C1489      O3129   1.273       .  A
C1493      C1517   1.473       .  S
C1494      O1495   1.284       .  A
O1496      C1512   1.272       .  A
O1496     Zn1502   2.014       .  S
C1497      O1513   1.273       .  A
C1497      O1510   1.269       .  A
O1498      C1511   1.273       .  A
O1498     Cd1505   2.120       .  S
O1499      C1517   1.270       .  A
O1499     Cd1508   2.041       .  S
O1500     Cd1504   2.141       .  S
O1501      C1512   1.288       .  A
O1501     Cd1504   2.145       .  S
Zn1502     O1513   1.976       .  S
Zn1502     O1515   1.930       .  S
Zn1502     O1507   1.862       .  S
O1503      C1514   1.272       .  A
Cd1504     O3162   2.055       .  S
Cd1504     O1507   1.970       .  S
Cd1505     O3165   2.105       .  S
Cd1505     O1518   2.121       .  S
Cd1505     O1507   1.998       .  S
O1506      C1516   1.270       .  A
O1506     Cd3160   2.055   1_455  S
O1507     Cd1508   1.983       .  S
Cd1508     O1510   2.073       .  S
O1509      C1516   1.285       .  A
O1509     Cd3161   2.105   1_455  S
C1511      O1515   1.260       .  A
C1512      C1581   1.486       .  S
C1517      O1518   1.286       .  A
O1519      C1535   1.271       .  A
O1519     Zn1525   2.009       .  S
C1520      O1536   1.273       .  A
C1520      O1533   1.270       .  A
C1520      C1626   1.457       .  S
O1521      C1534   1.273       .  A
O1521     Cd1528   2.117       .  S
O1522      C1540   1.271       .  A
O1522     Cd1531   2.044       .  S
O1523      C1537   1.293       .  A
O1523     Cd1527   2.138       .  S
O1524      C1535   1.288       .  A
O1524     Cd1527   2.143       .  S
Zn1525     O1536   1.975       .  S
Zn1525     O1538   1.930       .  S
Zn1525     O1530   1.861       .  S
O1526      C1537   1.272       .  A
O1526     Cd1531   2.023       .  S
Cd1527     O1529   2.057       .  S
Cd1527     O1530   1.970       .  S
Cd1528     O1532   2.102       .  S
Cd1528     O1541   2.116       .  S
Cd1528     O1530   1.997       .  S
O1529      C1539   1.270       .  A
O1530     Cd1531   1.983       .  S
Cd1531     O1533   2.076       .  S
O1532      C1539   1.284       .  A
C1534      O1538   1.261       .  A
C1534      C1566   1.456       .  S
C1537      C1585   1.473       .  S
C1539      C1629   1.473       .  S
C1540      O1541   1.286       .  A
C1540      C1562   1.473   1_554  S
O1542      C1558   1.273       .  A
O1542     Zn1548   1.976       .  S
C1543      O1559   1.271       .  A
C1543      O1556   1.288       .  A
O1544      C1557   1.273       .  A
O1544     Cd1551   2.117       .  S
O1545      C1563   1.270       .  A
O1545     Cd1554   2.056       .  S
O1546      C1560   1.272       .  A
O1546     Cd1550   2.022       .  S
O1547      C1558   1.269       .  A
O1547     Cd1550   2.074       .  S
Zn1548     O1559   2.011       .  S
Zn1548     O1561   1.930       .  S
Zn1548     O1553   1.860       .  S
O1549      C1560   1.293       .  A
O1549     Cd1554   2.139       .  S
Cd1550     O1552   2.044       .  S
Cd1550     O1553   1.982       .  S
Cd1551     O1555   2.116       .  S
Cd1551     O1564   2.102       .  S
Cd1551     O1553   1.996       .  S
O1552      C1562   1.271       .  A
O1553     Cd1554   1.970       .  S
Cd1554     O1556   2.145       .  S
O1555      C1562   1.285       .  A
C1557      O1561   1.261       .  A
C1557      C1604   1.456       .  S
C1558      C1649   1.457       .  S
C1560      C1609   1.473       .  S
C1563      O1564   1.284       .  A
C1563      C1652   1.472       .  S
O1565      C1581   1.271       .  A
O1565     Zn1571   2.011       .  S
C1566      O1582   1.273       .  A
C1566      O1579   1.269       .  A
O1567      C1580   1.273       .  A
O1567     Cd3230   2.118       .  S
O1568      C1586   1.271       .  A
O1568     Cd1577   2.042       .  S
O1569      C1583   1.293       .  A
O1569     Cd1573   2.141       .  S
O1570      C3237   1.289   1_455  A
O1570     Cd1573   2.147       .  S
Zn1571     O1582   1.975       .  S
Zn1571     O1584   1.930       .  S
Zn1571     O3232   1.861       .  S
O1572      C1583   1.272       .  A
O1572     Cd1577   2.021       .  S
Cd1573     O1575   2.058       .  S
Cd1573     O1576   1.970       .  S
Cd1574     O3223   2.118   1_455  S
Cd1574     O1578   2.101       .  S
Cd1574     O1587   2.116       .  S
Cd1574     O1576   1.997       .  S
O1575      C1585   1.270       .  A
O1576     Zn3227   1.861   1_455  S
O1576     Cd1577   1.983       .  S
Cd1577     O3235   2.074   1_455  S
O1578      C1585   1.284       .  A
O1579     Cd3233   2.074       .  S
C1580      O1584   1.260       .  A
C1580      C1612   1.457       .  S
C1581      O3226   1.289       .  A
C1583      C1631   1.473       .  S
C1586      O1587   1.286       .  A
C1586      C3264   1.472   1_554  S
O1588      C1604   1.273       .  A
O1588     Zn1594   1.974       .  S
C1589      O1605   1.271       .  A
C1589      O3258   1.288       .  A
O1590      C1603   1.273       .  A
O1590     Cd1597   2.119   1_455  S
O1591      C1609   1.270       .  A
O1591     Cd1600   2.057       .  S
O1592      C1606   1.272       .  A
O1592     Cd3252   2.023       .  S
O1593      C1604   1.269       .  A
O1593     Cd1596   2.074       .  S
Zn1594     O1605   2.011       .  S
Zn1594     O1607   1.930       .  S
Zn1594     O1599   1.861       .  S
O1595      C1606   1.293       .  A
O1595     Cd1600   2.140       .  S
Cd1596     O3248   2.023   1_455  S
Cd1596     O3254   2.042       .  S
Cd1596     O1599   1.983       .  S
Cd1597     O3257   2.116   1_655  S
Cd1597     O3266   2.101       .  S
Cd1597     O1599   1.997   1_655  S
O1598      C1608   1.271       .  A
O1598     Cd3252   2.042       .  S
O1599     Cd3256   1.970   1_455  S
Cd1600     O1602   2.144       .  S
Cd1600     O3255   1.970       .  S
O1601      C1608   1.286       .  A
O1601     Cd3253   2.116       .  S
O1602      C3245   1.288       .  A
C1603      O1607   1.260       .  A
C1603      C1650   1.457       .  S
C1606      C1655   1.474       .  S
C1608      C3242   1.472   1_556  S
C1609      O1610   1.284       .  A
O1610     Cd3253   2.101       .  S
O1611      C1627   1.272       .  A
O1611     Zn1617   2.013       .  S
C1612      O1628   1.273       .  A
C1612      O1625   1.269       .  A
O1613      C1626   1.273       .  A
O1613     Cd1620   2.119       .  S
O1614      C1632   1.271   1_565  A
O1615      C1629   1.293       .  A
O1615     Cd1619   2.139       .  S
O1616     Cd1619   2.144   1_545  S
Zn1617     O1628   1.977       .  S
Zn1617     O1630   1.930       .  S
Zn1617     O1622   1.861       .  S
O1618      C1629   1.272       .  A
Cd1619     O1621   2.056       .  S
Cd1620     O1622   1.997       .  S
O1621      C1631   1.270       .  A
O1622     Cd1623   1.983       .  S
Cd1623     O1625   2.074       .  S
O1624      C1631   1.284       .  A
C1626      O1630   1.260       .  A
C1632      O1633   1.286       .  A
O1634      C1650   1.273       .  A
O1634     Zn1640   1.976       .  S
C1635      O1651   1.271       .  A
O1636      C1649   1.273       .  A
O1637      C1655   1.270       .  A
O1637     Cd1646   2.057       .  S
O1638      C1652   1.272       .  A
O1638     Cd1642   2.021       .  S
O1639      C1650   1.269       .  A
Zn1640     O1651   2.010       .  S
Zn1640     O1653   1.930       .  S
O1641      C1652   1.293       .  A
O1641     Cd1646   2.139       .  S
Cd1642     O1644   2.042       .  S
Cd1642     O1645   1.983       .  S
Cd1643     O1647   2.118       .  S
Cd1643     O1656   2.104       .  S
Cd1643     O1645   1.997       .  S
O1644      C1654   1.271       .  A
O1645     Cd1646   1.970       .  S
Cd1646     O1648   2.144       .  S
O1647      C1654   1.286       .  A
C1649      O1653   1.261       .  A
C1655      O1656   1.284       .  A
O1657      C1673   1.273       .  A
O1657     Zn1663   1.975       .  S
C1658      O1674   1.271       .  A
C1658      O1671   1.288       .  A
C1658      C1980   1.485       .  S
O1659      C1672   1.273       .  A
O1659     Cd1666   2.120       .  S
O1660      C1678   1.270       .  A
O1660     Cd2497   2.055       .  S
O1661      C1675   1.272       .  A
O1662      C1673   1.269       .  A
O1662     Cd1665   2.072       .  S
Zn1663     O1674   2.012       .  S
Zn1663     O1676   1.930       .  S
Zn1663     O1668   1.861       .  S
O1664     Cd1669   2.141   1_455  S
Cd1665     O1667   2.040       .  S
Cd1665     O1668   1.982       .  S
Cd1666     O1670   2.120       .  S
Cd1666     O2507   2.104   1_545  S
Cd1666     O1668   1.998       .  S
O1667      C1677   1.270       .  A
O1668     Cd1669   1.970       .  S
Cd1669     O2488   2.055   1_545  S
Cd1669     O1671   2.145       .  S
O1670      C1677   1.286       .  A
C1672      O1676   1.260       .  A
C1672      C1765   1.458       .  S
C1673      C1718   1.456       .  S
C1675      C1770   1.473       .  S
C1677      C1701   1.473       .  S
C1678      O1679   1.284       .  A
C1678      C1721   1.473       .  S
O1679     Cd2494   2.104       .  S
O1680      C1696   1.271       .  A
O1680     Zn1686   2.012       .  S
C1681      O2525   1.273       .  A
C1681      O1694   1.269       .  A
C1681      C1741   1.456       .  S
O1682      C1695   1.273       .  A
O1683      C1701   1.270       .  A
O1683     Cd1692   2.040       .  S
O1684      C1698   1.293       .  A
O1684     Cd1688   2.142       .  S
O1685      C1696   1.289       .  A
O1685     Cd1688   2.146       .  S
Zn1686     O1697   1.976   1_545  S
Zn1686     O1691   1.861       .  S
O1687      C1698   1.272       .  A
O1687     Cd1692   2.019       .  S
Cd1688     O1690   2.055       .  S
Cd1688     O1691   1.970       .  S
Cd1689     O1693   2.104       .  S
Cd1689     O1702   2.120       .  S
Cd1689     O1691   1.998       .  S
O1690      C1700   1.270       .  A
O1691     Cd1692   1.982       .  S
Cd1692     O2522   2.072   1_545  S
O1693      C1700   1.284       .  A
O1694     Cd2520   2.072       .  S
C1695      O1699   1.260       .  A
C1695      C1773   1.457       .  S
O1697      C2509   1.273       .  A
C1698      C1792   1.473       .  S
C1700      C1744   1.473       .  S
C1701      O1702   1.286       .  A
O1703      C1719   1.273       .  A
O1703     Zn1709   1.975       .  S
C1704      O1720   1.271       .  A
C1704      O1717   1.288       .  A
C1704      C2026   1.484       .  S
O1705      C1718   1.273       .  A
O1705     Cd1712   2.116       .  S
O1706      C1724   1.270       .  A
O1707      C1721   1.272       .  A
O1707     Cd1711   2.021       .  S
O1708      C1719   1.270       .  A
O1708     Cd1711   2.075       .  S
Zn1709     O1720   2.007       .  S
Zn1709     O1722   1.930       .  S
Zn1709     O1714   1.862       .  S
O1710      C1721   1.293       .  A
O1710     Cd1715   2.140       .  S
Cd1711     O1713   2.043       .  S
Cd1711     O1714   1.982       .  S
Cd1712     O1716   2.112       .  S
Cd1712     O1714   1.996       .  S
O1713      C1723   1.271       .  A
O1714     Cd1715   1.969       .  S
Cd1715     O1717   2.146       .  S
O1716      C1723   1.285       .  A
C1718      O1722   1.261       .  A
C1719      C1764   1.457       .  S
C1723      C1747   1.471       .  S
C1724      O1725   1.283       .  A
C1724      C1767   1.473       .  S
O1726      C1742   1.271       .  A
O1726     Zn1732   2.008       .  S
C1727      O1743   1.273       .  A
C1727      O1740   1.270       .  A
C1727      C1787   1.457       .  S
O1728      C1741   1.273       .  A
O1728     Cd1735   2.117       .  S
O1729      C1747   1.271       .  A
O1729     Cd1738   2.042       .  S
O1730      C1744   1.293       .  A
O1730     Cd1734   2.139       .  S
O1731      C1742   1.288       .  A
O1731     Cd1734   2.145       .  S
Zn1732     O1745   1.930       .  S
Zn1732     O1737   1.863       .  S
O1733      C1744   1.272       .  A
O1733     Cd1738   2.021       .  S
Cd1734     O1736   2.060       .  S
Cd1734     O1737   1.970       .  S
Cd1735     O1739   2.100       .  S
Cd1735     O1748   2.113       .  S
Cd1735     O1737   1.997       .  S
O1736      C1746   1.270       .  A
O1737     Cd1738   1.983       .  S
O1739      C1746   1.283       .  A
C1741      O1745   1.261       .  A
C1742      C1880   1.484       .  S
C1746      C1790   1.473       .  S
C1747      O1748   1.285       .  A
O1749      C1765   1.273       .  A
O1749     Zn1755   1.976       .  S
C1750      O1766   1.271       .  A
C1750      O1763   1.288       .  A
C1750      C1934   1.483       .  S
O1751      C1764   1.273       .  A
O1751     Cd1758   2.117       .  S
O1752      C1770   1.270       .  A
O1752     Cd1761   2.058       .  S
O1753      C1767   1.273       .  A
O1753     Cd2585   2.024       .  S
O1754      C1765   1.269       .  A
O1754     Cd1757   2.076       .  S
Zn1755     O1766   2.011       .  S
Zn1755     O1768   1.932       .  S
Zn1755     O1760   1.861       .  S
O1756      C1767   1.292       .  A
O1756     Cd2589   2.137       .  S
Cd1757     O2581   2.024   1_545  S
Cd1757     O1759   2.044       .  S
Cd1757     O1760   1.982       .  S
Cd1758     O1762   2.115       .  S
Cd1758     O1771   2.102       .  S
Cd1758     O1760   1.997       .  S
O1759      C1769   1.271       .  A
O1760     Cd1761   1.969       .  S
Cd1761     O2584   2.137   1_545  S
Cd1761     O1763   2.142       .  S
O1762      C1769   1.286       .  A
C1764      O1768   1.260       .  A
C1769      C1793   1.472       .  S
C1770      O1771   1.284       .  A
O1772      C1788   1.271       .  A
O1772     Zn1778   2.012       .  S
C1773      O1789   1.273       .  A
C1773      O1786   1.269       .  A
O1774      C1787   1.273       .  A
O1774     Cd2609   2.118       .  S
O1775      C1793   1.271       .  A
O1775     Cd1784   2.044       .  S
O1776      C1790   1.292       .  A
O1776     Cd1780   2.138       .  S
O1777      C1788   1.288       .  A
O1777     Cd1780   2.142       .  S
Zn1778     O1789   1.975       .  S
Zn1778     O2619   1.932   1_545  S
Zn1778     O1783   1.860       .  S
O1779      C1790   1.273       .  A
O1779     Cd1784   2.025       .  S
Cd1780     O1782   2.057       .  S
Cd1780     O1783   1.969       .  S
Cd1781     O2602   2.118   1_545  S
Cd1781     O1785   2.102       .  S
Cd1781     O1794   2.115       .  S
Cd1781     O1783   1.996       .  S
O1782      C1792   1.270       .  A
O1783     Cd1784   1.982       .  S
Cd1784     O1786   2.075       .  S
O1785      C1792   1.284       .  A
C1787      O1791   1.260       .  A
C1788      C2754   1.483   1_545  S
O1791     Zn2606   1.932       .  S
C1793      O1794   1.286       .  A
O1795      C1811   1.273       .  A
O1795     Zn1801   1.975       .  S
C1796      O1812   1.271       .  A
C1796      O1809   1.289       .  A
C1796      C2371   1.485       .  S
O1797      C1810   1.273       .  A
O1797     Cd1804   2.119       .  S
O1798      C1816   1.270       .  A
O1798     Cd1807   2.057       .  S
O1799      C1813   1.272       .  A
O1800      C1811   1.269       .  A
O1800     Cd1803   2.074       .  S
Zn1801     O1812   2.010       .  S
Zn1801     O1814   1.930       .  S
Zn1801     O1806   1.861       .  S
O1802     Cd1807   2.141       .  S
Cd1803     O1805   2.041       .  S
Cd1803     O1806   1.982       .  S
Cd1804     O1808   2.116       .  S
Cd1804     O1817   2.101       .  S
Cd1804     O1806   1.997       .  S
O1805      C1815   1.271       .  A
O1806     Cd1807   1.970       .  S
Cd1807     O1809   2.146       .  S
O1808      C1815   1.286       .  A
C1810      O1814   1.261       .  A
C1810      C1857   1.457       .  S
C1811      C1902   1.456       .  S
C1813      C1862   1.473       .  S
C1815      C1839   1.472       .  S
C1816      O1817   1.284       .  A
C1816      C1905   1.473       .  S
O1818      C1834   1.271       .  A
O1818     Zn1824   2.010       .  S
C1819      O1835   1.273       .  A
C1819      O1832   1.269       .  A
C1819      C1925   1.456       .  S
O1820      C1833   1.273       .  A
O1821      C1839   1.271       .  A
O1821     Cd1830   2.041       .  S
O1822      C1836   1.293       .  A
O1822     Cd1826   2.141       .  S
O1823      C1834   1.289       .  A
O1823     Cd1826   2.147       .  S
Zn1824     O1835   1.975       .  S
Zn1824     O1829   1.862       .  S
O1825      C1836   1.272       .  A
O1825     Cd1830   2.020       .  S
Cd1826     O1828   2.057       .  S
Cd1826     O1829   1.970       .  S
Cd1827     O1831   2.101       .  S
Cd1827     O1840   2.115       .  S
Cd1827     O1829   1.997       .  S
O1828      C1838   1.270       .  A
O1829     Cd1830   1.982       .  S
Cd1830     O1832   2.074       .  S
O1831      C1838   1.284       .  A
C1833      O1837   1.261   1_655  A
C1833      C1865   1.457       .  S
C1836      C1884   1.473       .  S
C1838      C1928   1.473       .  S
C1839      O1840   1.285       .  A
O1841      C1857   1.273       .  A
O1841     Zn1847   1.976       .  S
C1842      O1858   1.271       .  A
C1842      O1855   1.288       .  A
C1842      C2463   1.485       .  S
O1843      C1856   1.273       .  A
O1843     Cd1850   2.119       .  S
O1844      C1862   1.270       .  A
O1844     Cd2681   2.056   1_545  S
O1845      C1859   1.272       .  A
O1845     Cd1849   2.022       .  S
O1846      C1857   1.269       .  A
O1846     Cd1849   2.074       .  S
Zn1847     O1858   2.012       .  S
Zn1847     O1860   1.930       .  S
Zn1847     O1852   1.862       .  S
O1848      C1859   1.293       .  A
O1848     Cd1853   2.140       .  S
Cd1849     O1851   2.042       .  S
Cd1849     O1852   1.983       .  S
Cd1850     O1854   2.119       .  S
Cd1850     O2691   2.104       .  S
Cd1850     O1852   1.997       .  S
O1851      C1861   1.271       .  A
O1852     Cd1853   1.970       .  S
Cd1853     O2672   2.056       .  S
Cd1853     O1855   2.144       .  S
O1854      C1861   1.286       .  A
C1856      O1860   1.260       .  A
C1856      C1903   1.457       .  S
C1859      C1908   1.473       .  S
C1861      C1885   1.473       .  S
C1862      O1863   1.284       .  A
O1863     Cd2678   2.104   1_545  S
O1864      C1880   1.272       .  A
O1864     Zn1870   2.012       .  S
C1865      O1881   1.273       .  A
C1865      O1878   1.269       .  A
O1866      C1879   1.273       .  A
O1866     Cd1873   2.119       .  S
O1867      C1885   1.271       .  A
O1867     Cd1876   2.042       .  S
O1868      C1882   1.293       .  A
O1868     Cd1872   2.139       .  S
O1869      C1880   1.288       .  A
O1869     Cd1872   2.143       .  S
Zn1870     O2709   1.976       .  S
Zn1870     O1883   1.930       .  S
Zn1870     O1875   1.861       .  S
O1871      C1882   1.272       .  A
O1871     Cd1876   2.022       .  S
Cd1872     O1874   2.055       .  S
Cd1872     O1875   1.970       .  S
Cd1873     O1877   2.103       .  S
Cd1873     O1886   2.118       .  S
Cd1873     O1875   1.997       .  S
O1874      C1884   1.270       .  A
O1875     Cd1876   1.982       .  S
Cd1876     O2706   2.074       .  S
O1877      C1884   1.284       .  A
O1878     Cd2704   2.074   1_545  S
C1879      O1883   1.260       .  A
C1879      C1911   1.457       .  S
O1881     Zn2698   1.976   1_545  S
C1882      C1930   1.473       .  S
C1885      O1886   1.286       .  A
O1887      C1903   1.273       .  A
O1887     Zn1893   1.976       .  S
C1888      O1904   1.271       .  A
C1888      O1901   1.288       .  A
C1888      C2417   1.484       .  S
O1889      C1902   1.273       .  A
O1889     Cd1896   2.117       .  S
O1890      C1908   1.270       .  A
O1891      C1905   1.272       .  A
O1891     Cd2723   2.023   1_545  S
O1892      C1903   1.269       .  A
O1892     Cd1895   2.075       .  S
Zn1893     O1904   2.010       .  S
Zn1893     O1906   1.930       .  S
Zn1893     O1898   1.861       .  S
O1894      C1905   1.293       .  A
O1894     Cd2727   2.138   1_545  S
Cd1895     O2719   2.023       .  S
Cd1895     O1897   2.044       .  S
Cd1895     O1898   1.982       .  S
Cd1896     O1900   2.114       .  S
Cd1896     O1898   1.997       .  S
O1897      C1907   1.271       .  A
O1898     Cd1899   1.970       .  S
Cd1899     O2722   2.138       .  S
Cd1899     O1901   2.144       .  S
O1900      C1907   1.285       .  A
C1902      O1906   1.261       .  A
C1907      C1931   1.472       .  S
C1908      O1909   1.284       .  A
O1910      C1926   1.271       .  A
O1910     Zn1916   2.008       .  S
C1911      O1924   1.270       .  A
O1912      C1925   1.273       .  A
O1912     Cd2747   2.117   1_545  S
O1913      C1931   1.271       .  A
O1913     Cd1922   2.044       .  S
O1914      C1928   1.293       .  A
O1914     Cd1918   2.138       .  S
O1915      C1926   1.288       .  A
O1915     Cd1918   2.143       .  S
Zn1916     O1927   1.974       .  S
Zn1916     O2757   1.930       .  S
Zn1916     O1921   1.861       .  S
O1917      C1928   1.272       .  A
O1917     Cd1922   2.023       .  S
Cd1918     O1920   2.059       .  S
Cd1918     O1921   1.970       .  S
Cd1919     O2740   2.117       .  S
Cd1919     O1923   2.101       .  S
Cd1919     O1932   2.114       .  S
Cd1919     O1921   1.997       .  S
O1920      C1930   1.270       .  A
O1921     Cd1922   1.983       .  S
O1923      C1930   1.284       .  A
C1925      O1929   1.261       .  A
C1926      C2616   1.483       .  S
O1929     Zn2744   1.930   1_545  S
C1931      O1932   1.285       .  A
O1933      C1949   1.273       .  A
O1933     Zn1939   1.974       .  S
C1934      O1950   1.271       .  A
C1934      O1947   1.288       .  A
O1935      C1948   1.273       .  A
O1935     Cd1942   2.118       .  S
O1936      C1954   1.270       .  A
O1936     Cd1945   2.058       .  S
O1937      C1951   1.272       .  A
O1937     Cd1941   2.023       .  S
O1938      C1949   1.270       .  A
O1938     Cd1941   2.076       .  S
Zn1939     O1950   2.009       .  S
Zn1939     O1952   1.930       .  S
Zn1939     O1944   1.861       .  S
O1940      C1951   1.293       .  A
O1940     Cd1945   2.138       .  S
Cd1941     O1943   2.043       .  S
Cd1941     O1944   1.983       .  S
Cd1942     O1946   2.116       .  S
Cd1942     O1955   2.102       .  S
Cd1942     O1944   1.997       .  S
O1943      C1953   1.271       .  A
O1944     Cd1945   1.970       .  S
Cd1945     O1947   2.143       .  S
O1946      C1953   1.286       .  A
C1948      O1952   1.260       .  A
C1948      C1995   1.457       .  S
C1949      C2040   1.457       .  S
C1951      C2000   1.473       .  S
C1953      C1977   1.472       .  S
C1954      O1955   1.284       .  A
C1954      C2043   1.473       .  S
O1956      C1972   1.271       .  A
O1956     Zn1962   2.011       .  S
C1957      O1973   1.273       .  A
C1957      O1970   1.269       .  A
C1957      C2063   1.457       .  S
O1958      C1971   1.273       .  A
O1958     Cd1965   2.117       .  S
O1959      C1977   1.271       .  A
O1959     Cd1968   2.043       .  S
O1960      C1974   1.293       .  A
O1960     Cd1964   2.140       .  S
O1961      C1972   1.288       .  A
O1961     Cd1964   2.145       .  S
Zn1962     O1973   1.977       .  S
Zn1962     O1975   1.930       .  S
Zn1962     O1967   1.862       .  S
O1963      C1974   1.272       .  A
O1963     Cd1968   2.021       .  S
Cd1964     O1966   2.057       .  S
Cd1964     O1967   1.970       .  S
Cd1965     O1969   2.102       .  S
Cd1965     O1978   2.116       .  S
Cd1965     O1967   1.997       .  S
O1966      C1976   1.270       .  A
O1967     Cd1968   1.983       .  S
Cd1968     O1970   2.074       .  S
O1969      C1976   1.284       .  A
C1971      O1975   1.261       .  A
C1971      C2003   1.456       .  S
C1972      C2202   1.485       .  S
C1974      C2022   1.472       .  S
C1976      C2066   1.473       .  S
C1977      O1978   1.286       .  A
O1979      C1995   1.273       .  A
O1979     Zn1985   1.976       .  S
C1980      O1996   1.271       .  A
C1980      O2821   1.289   1_545  A
O1981      C1994   1.273       .  A
O1981     Cd2816   2.117   1_545  S
O1982      C2000   1.270       .  A
O1982     Cd1991   2.058       .  S
O1983      C1997   1.272       .  A
O1983     Cd1987   2.021       .  S
O1984      C1995   1.269       .  A
O1984     Cd2815   2.074   1_545  S
Zn1985     O1996   2.010       .  S
Zn1985     O1998   1.930       .  S
Zn1985     O1990   1.862   1_545  S
O1986      C1997   1.293       .  A
O1986     Cd1991   2.140       .  S
Cd1987     O2812   2.074       .  S
Cd1987     O1989   2.042       .  S
Cd1987     O2818   1.982       .  S
Cd1988     O2809   2.117       .  S
Cd1988     O1992   2.115       .  S
Cd1988     O2001   2.101       .  S
Cd1988     O2818   1.997       .  S
O1989      C1999   1.271       .  A
O1990     Cd2815   1.982       .  S
O1990     Cd2816   1.997       .  S
O1990     Cd2819   1.970       .  S
Cd1991     O1993   2.146       .  S
Cd1991     O2818   1.970       .  S
O1992      C1999   1.285       .  A
O1993      C2808   1.289       .  A
C1994      O1998   1.261       .  A
C1994      C2041   1.457       .  S
C1997      C2046   1.473       .  S
C1999      C2851   1.472       .  S
C2000      O2001   1.284       .  A
O2002      C2018   1.271       .  A
O2002     Zn2008   2.010       .  S
C2003      O2019   1.273       .  A
C2003      O2016   1.269       .  A
O2004      C2017   1.273       .  A
O2004     Cd2011   2.118       .  S
O2005      C2023   1.271       .  A
O2005     Cd2842   2.043       .  S
O2006      C2020   1.293       .  A
O2006     Cd2010   2.139       .  S
O2007      C2846   1.288       .  A
O2007     Cd2010   2.144   1_565  S
Zn2008     O2019   1.975       .  S
Zn2008     O2021   1.930       .  S
Zn2008     O2013   1.860       .  S
O2009      C2020   1.272       .  A
O2009     Cd2842   2.022   1_545  S
Cd2010     O2012   2.056       .  S
Cd2010     O2841   1.970   1_545  S
Cd2011     O2843   2.101       .  S
Cd2011     O2852   2.116       .  S
Cd2011     O2013   1.996       .  S
O2012      C2022   1.270       .  A
O2013     Cd2838   1.970       .  S
O2013     Cd2014   1.982       .  S
Cd2014     O2833   2.043       .  S
Cd2014     O2837   2.022       .  S
Cd2014     O2016   2.074       .  S
O2015      C2022   1.284       .  A
O2015     Cd2839   2.101       .  S
C2017      O2021   1.260       .  A
C2017      C2049   1.457       .  S
C2018      O2835   1.288       .  A
C2018      C2156   1.484       .  S
C2020      C2068   1.473       .  S
C2023      O2024   1.286       .  A
C2023      C2827   1.472       .  S
O2024     Cd2839   2.116   1_565  S
O2025      C2041   1.273       .  A
O2025     Zn2031   1.976       .  S
C2026      O2042   1.271       .  A
O2027      C2040   1.273       .  A
O2027     Cd2034   2.119   1_655  S
O2028      C2046   1.270       .  A
O2028     Cd2037   2.055       .  S
O2029      C2043   1.272       .  A
O2030      C2041   1.269       .  A
O2030     Cd2033   2.074   1_655  S
Zn2031     O2042   2.011       .  S
Zn2031     O2044   1.930       .  S
Zn2031     O2036   1.861       .  S
O2032      C2043   1.293       .  A
O2032     Cd2037   2.140       .  S
Cd2033     O2036   1.982   1_455  S
Cd2034     O2036   1.997   1_455  S
O2035      C2045   1.271       .  A
Cd2037     O2039   2.143       .  S
O2038      C2045   1.286       .  A
C2040      O2044   1.260       .  A
C2046      O2047   1.284       .  A
O2048      C2064   1.271       .  A
O2048     Zn2054   2.010       .  S
C2049      O2065   1.273       .  A
C2049      O2062   1.269       .  A
O2050      C2063   1.273       .  A
O2051      C2069   1.271       .  A
O2051     Cd2060   2.041       .  S
O2052      C2066   1.293       .  A
O2052     Cd2056   2.140       .  S
O2053     Cd2056   2.144   1_455  S
Zn2054     O2065   1.974       .  S
Zn2054     O2067   1.930       .  S
Zn2054     O2059   1.862       .  S
O2055      C2066   1.272       .  A
O2055     Cd2060   2.022       .  S
Cd2056     O2058   2.058       .  S
Cd2057     O2061   2.102       .  S
Cd2057     O2070   2.117       .  S
O2058      C2068   1.270       .  A
O2061      C2068   1.284       .  A
C2063      O2067   1.260       .  A
C2064      C2110   1.484       .  S
C2069      O2070   1.286       .  A
O2071      C2087   1.273       .  A
C2072      O2088   1.272       .  A
C2072      O2085   1.288       .  A
C2072      C2256   1.484       .  S
O2073      C2086   1.273       .  A
O2073     Cd2080   2.118       .  S
O2074      C2092   1.270       .  A
O2074     Cd2083   2.055       .  S
O2075      C2089   1.272       .  A
O2075     Cd2079   2.023       .  S
O2076      C2087   1.269       .  A
Zn2077     O2088   2.013       .  S
Zn2077     O2090   1.931       .  S
Zn2077     O2082   1.861       .  S
O2078      C2089   1.292       .  A
O2078     Cd2083   2.138       .  S
Cd2079     O2081   2.043       .  S
Cd2079     O2082   1.982       .  S
Cd2080     O2084   2.117       .  S
Cd2080     O2093   2.105       .  S
Cd2080     O2082   1.997       .  S
O2081      C2091   1.271       .  A
O2082     Cd2083   1.970       .  S
Cd2083     O2085   2.141       .  S
O2084      C2091   1.286       .  A
C2086      O2090   1.260       .  A
C2086      C2133   1.457       .  S
C2087      C2178   1.458       .  S
C2089      C2138   1.473       .  S
C2091      C2115   1.473       .  S
C2092      O2093   1.285       .  A
C2092      C2181   1.473       .  S
O2094      C2110   1.271       .  A
O2094     Zn2100   2.011       .  S
C2095      O2111   1.273       .  A
C2095      O2108   1.269       .  A
C2095      C2201   1.458       .  S
O2096      C2109   1.273       .  A
O2096     Cd2103   2.118       .  S
O2097      C2115   1.271       .  A
O2097     Cd2106   2.043       .  S
O2098      C2112   1.293       .  A
O2098     Cd2102   2.138       .  S
O2099      C2110   1.288       .  A
O2099     Cd2102   2.143       .  S
Zn2100     O2111   1.977       .  S
Zn2100     O2113   1.931       .  S
Zn2100     O2105   1.862       .  S
O2101      C2112   1.272       .  A
O2101     Cd2106   2.022       .  S
Cd2102     O2105   1.970       .  S
Cd2103     O2116   2.118       .  S
Cd2103     O2105   1.997       .  S
O2104      C2114   1.270       .  A
O2105     Cd2106   1.983       .  S
Cd2106     O2108   2.075       .  S
O2107      C2114   1.284       .  A
C2109      O2113   1.261       .  A
C2109      C2141   1.457       .  S
C2112      C2160   1.472       .  S
C2114      C2204   1.474       .  S
C2115      O2116   1.286       .  A
O2117      C2961   1.272       .  A
O2117     Zn2123   1.974       .  S
C2118      O2134   1.271       .  A
C2118      O2131   1.288       .  A
O2119      C2132   1.273       .  A
O2120      C2138   1.270       .  A
O2120     Cd2129   2.059       .  S
O2121      C2135   1.272       .  A
O2121     Cd2125   2.023       .  S
O2122      C2133   1.270       .  A
O2122     Cd2953   2.076   1_545  S
Zn2123     O2134   2.007       .  S
Zn2123     O2128   1.861       .  S
O2124      C2135   1.293       .  A
O2124     Cd2129   2.139       .  S
Cd2125     O2950   2.076       .  S
Cd2125     O2127   2.043       .  S
Cd2125     O2128   1.982       .  S
Cd2126     O2130   2.114       .  S
Cd2126     O2139   2.099       .  S
Cd2126     O2128   1.997       .  S
O2127      C2137   1.271       .  A
O2128     Cd2129   1.969       .  S
Cd2129     O2131   2.144       .  S
O2130      C2137   1.285       .  A
C2132      O2136   1.261       .  A
C2132      C2179   1.456       .  S
C2133      O2945   1.272       .  A
C2135      C2184   1.473       .  S
C2137      C2161   1.472       .  S
C2138      O2139   1.283       .  A
O2140      C2156   1.271       .  A
O2140     Zn2146   2.009       .  S
C2141      O2157   1.273       .  A
C2141      O2154   1.270       .  A
O2142      C2155   1.273       .  A
O2142     Cd2149   2.116       .  S
O2143      C2161   1.271       .  A
O2143     Cd2152   2.043       .  S
O2144      C2158   1.293       .  A
O2145      C2156   1.288       .  A
O2145     Cd2148   2.145       .  S
Zn2146     O2157   1.975       .  S
Zn2146     O2159   1.930       .  S
Zn2146     O2151   1.860       .  S
O2147      C2158   1.272       .  A
Cd2148     O2978   2.057       .  S
Cd2148     O2151   1.969       .  S
Cd2149     O2981   2.099       .  S
Cd2149     O2162   2.113       .  S
Cd2149     O2151   1.996       .  S
O2150      C2160   1.270       .  A
O2150     Cd2976   2.057   1_545  S
O2151     Cd2152   1.982       .  S
Cd2152     O2154   2.075       .  S
O2153      C2160   1.284       .  A
O2153     Cd2977   2.099   1_545  S
C2155      O2159   1.261       .  A
C2155      C2187   1.456       .  S
C2158      C2206   1.473       .  S
C2161      O2162   1.285       .  A
O2163      C2179   1.273       .  A
O2163     Zn2169   1.976       .  S
C2164      O2180   1.271       .  A
C2164      O2177   1.289       .  A
C2164      C3130   1.486       .  S
O2165      C2178   1.273       .  A
O2165     Cd3000   2.119   1_545  S
O2166      C2184   1.270       .  A
O2166     Cd2175   2.057       .  S
O2167      C2181   1.271       .  A
O2167     Cd2171   2.019       .  S
O2168      C2179   1.269       .  A
O2168     Cd2171   2.072       .  S
Zn2169     O2180   2.011       .  S
Zn2169     O3010   1.930       .  S
Zn2169     O2174   1.862       .  S
O2170      C2181   1.293       .  A
O2170     Cd2175   2.143       .  S
Cd2171     O2173   2.040       .  S
Cd2171     O2174   1.983       .  S
Cd2172     O2993   2.119       .  S
Cd2172     O2176   2.117       .  S
Cd2172     O2185   2.102       .  S
Cd2172     O2174   1.997       .  S
O2173      C2183   1.270       .  A
O2174     Cd2175   1.970       .  S
Cd2175     O2177   2.148       .  S
O2176      C2183   1.286       .  A
C2178      O2182   1.260   1_545  A
O2182     Zn2997   1.930       .  S
C2183      C2207   1.472       .  S
C2184      O2185   1.284       .  A
O2186      C2202   1.271       .  A
O2186     Zn2192   2.012       .  S
C2187      O2203   1.273       .  A
C2187      O2200   1.269       .  A
O2188      C2201   1.273       .  A
O2188     Cd2195   2.120       .  S
O2189      C2207   1.270       .  A
O2189     Cd2198   2.041       .  S
O2190      C3032   1.293       .  A
O2190     Cd2194   2.142       .  S
O2191      C2202   1.289       .  A
O2191     Cd2194   2.146       .  S
Zn2192     O2203   1.974       .  S
Zn2192     O2205   1.930       .  S
Zn2192     O2197   1.862       .  S
O2193      C2204   1.272       .  A
O2193     Cd3026   2.021   1_545  S
Cd2194     O2196   2.056       .  S
Cd2194     O2197   1.970       .  S
Cd2195     O2199   2.102       .  S
Cd2195     O2208   2.117       .  S
Cd2195     O2197   1.997       .  S
O2196      C2206   1.270       .  A
O2197     Cd2198   1.983       .  S
Cd2198     O3021   2.021       .  S
Cd2198     O2200   2.073       .  S
O2199      C2206   1.284       .  A
C2201      O2205   1.260       .  A
C2204      O3018   1.293   1_545  A
C2207      O2208   1.286       .  A
O2209      C2225   1.273       .  A
O2209     Zn2215   1.976       .  S
C2210      O2226   1.271       .  A
C2210      O2223   1.288       .  A
O2211      C2224   1.273       .  A
O2212      C2230   1.270       .  A
O2212     Cd2221   2.057       .  S
O2213      C2227   1.273       .  A
O2213     Cd2217   2.025       .  S
O2214      C2225   1.270       .  A
O2214     Cd2217   2.076       .  S
Zn2215     O2226   2.011       .  S
Zn2215     O2220   1.860       .  S
O2216      C2227   1.292       .  A
O2216     Cd2221   2.137       .  S
Cd2217     O2219   2.045       .  S
Cd2217     O2220   1.982       .  S
Cd2218     O2222   2.114       .  S
Cd2218     O2231   2.102       .  S
Cd2218     O2220   1.996       .  S
O2219      C2229   1.271       .  A
O2220     Cd2221   1.969       .  S
Cd2221     O2223   2.141       .  S
O2222      C2229   1.285       .  A
C2224      O2228   1.261       .  A
C2224      C2271   1.456       .  S
C2225      C2316   1.458       .  S
C2227      C2276   1.473       .  S
C2229      C2253   1.472       .  S
C2230      O2231   1.284       .  A
C2230      C2319   1.473       .  S
O2232      C2248   1.271       .  A
O2232     Zn2238   2.010       .  S
C2233      O2249   1.273       .  A
C2233      O2246   1.269       .  A
C2233      C2339   1.458       .  S
O2234      C2247   1.273       .  A
O2234     Cd2241   2.116       .  S
O2235      C2253   1.271       .  A
O2235     Cd2244   2.045       .  S
O2236      C2250   1.292       .  A
O2237      C2248   1.288       .  A
O2237     Cd2240   2.142       .  S
Zn2238     O2249   1.977       .  S
Zn2238     O2251   1.931       .  S
Zn2238     O2243   1.861       .  S
O2239      C2250   1.273       .  A
Cd2240     O2242   2.057       .  S
Cd2240     O2243   1.969       .  S
Cd2241     O2245   2.103       .  S
Cd2241     O2254   2.114       .  S
Cd2241     O2243   1.996       .  S
O2242      C2252   1.270       .  A
O2243     Cd2244   1.982       .  S
Cd2244     O2246   2.076       .  S
O2245      C2252   1.284       .  A
C2247      O2251   1.261       .  A
C2247      C2279   1.456       .  S
C2248      C2363   1.483       .  S
C2250      C2298   1.472       .  S
C2252      C2342   1.473       .  S
C2253      O2254   1.285       .  A
O2255      C2271   1.272       .  A
O2255     Zn3089   1.974       .  S
C2256      O2272   1.271       .  A
C2256      O2269   1.288       .  A
O2257      C2270   1.273       .  A
O2257     Cd2264   2.116       .  S
O2258      C2276   1.270       .  A
O2258     Cd2267   2.059       .  S
O2259      C2273   1.272       .  A
O2259     Cd2263   2.021       .  S
O2260      C2271   1.269       .  A
O2260     Cd3091   2.076       .  S
Zn2261     O3083   1.974   1_545  S
Zn2261     O2272   2.007       .  S
Zn2261     O2274   1.929       .  S
Zn2261     O2266   1.863       .  S
O2262      C2273   1.293       .  A
O2262     Cd2267   2.140       .  S
Cd2263     O3088   2.076   1_545  S
Cd2263     O2265   2.042       .  S
Cd2263     O2266   1.983       .  S
Cd2264     O2268   2.114       .  S
Cd2264     O2277   2.100       .  S
Cd2264     O2266   1.997       .  S
O2265      C2275   1.271       .  A
O2266     Cd2267   1.970       .  S
Cd2267     O2269   2.146       .  S
O2268      C2275   1.285       .  A
C2270      O2274   1.261       .  A
C2270      C2317   1.456       .  S
C2273      C2322   1.473       .  S
C2275      C2299   1.471       .  S
C2276      O2277   1.283       .  A
O2278      C2294   1.271       .  A
O2278     Zn2284   2.009       .  S
C2279      O2295   1.273       .  A
C2279      O2292   1.269       .  A
O2280      C2293   1.273       .  A
O2280     Cd2287   2.118       .  S
O2281      C2299   1.271       .  A
O2281     Cd2290   2.042       .  S
O2282      C2296   1.293       .  A
O2282     Cd2286   2.142       .  S
O2283      C2294   1.289       .  A
O2283     Cd2286   2.147       .  S
Zn2284     O2295   1.974       .  S
Zn2284     O2297   1.929       .  S
Zn2284     O2289   1.862       .  S
O2285      C2296   1.272       .  A
O2285     Cd2290   2.021       .  S
Cd2286     O3116   2.058   1_545  S
Cd2286     O2289   1.970       .  S
Cd2287     O3119   2.099   1_545  S
Cd2287     O2300   2.114       .  S
Cd2287     O2289   1.997       .  S
O2288      C2298   1.270       .  A
O2288     Cd3114   2.058       .  S
O2289     Cd2290   1.983       .  S
Cd2290     O2292   2.075       .  S
O2291      C2298   1.283       .  A
O2291     Cd3115   2.099       .  S
C2293      O2297   1.260       .  A
C2293      C2325   1.457       .  S
C2294      C2455   1.485       .  S
C2296      C2344   1.473       .  S
C2299      O2300   1.285       .  A
O2301     Zn2307   1.975   1_455  S
C2302      O2318   1.272       .  A
C2302      O2315   1.289       .  A
C2302      C2992   1.486   1_545  S
O2303      C2316   1.273       .  A
O2303     Cd3138   2.120       .  S
O2304      C2322   1.270       .  A
O2304     Cd2313   2.055       .  S
O2305      C2319   1.272       .  A
O2305     Cd2309   2.020       .  S
O2306      C2317   1.269       .  A
Zn2307     O2318   2.013       .  S
Zn2307     O3148   1.930   1_545  S
Zn2307     O2312   1.861       .  S
O2308      C2319   1.293       .  A
O2308     Cd2313   2.142       .  S
Cd2309     O2311   2.041       .  S
Cd2309     O2312   1.982       .  S
Cd2310     O3131   2.120   1_545  S
Cd2310     O2314   2.120       .  S
Cd2310     O2323   2.104       .  S
Cd2310     O2312   1.997       .  S
O2311      C2321   1.270       .  A
O2312     Cd2313   1.970       .  S
Cd2313     O2315   2.147       .  S
O2314      C2321   1.286       .  A
C2316      O2320   1.260       .  A
O2320     Zn3135   1.930       .  S
C2321      C2345   1.473       .  S
C2322      O2323   1.284       .  A
O2324      C2340   1.272       .  A
O2324     Zn2330   2.014       .  S
C2325      O2341   1.273       .  A
C2325      O2338   1.269       .  A
O2326      C2339   1.273       .  A
O2326     Cd2333   2.120       .  S
O2327      C2345   1.270       .  A
O2327     Cd2336   2.041       .  S
O2328      C3170   1.293   1_545  A
O2328     Cd2332   2.141       .  S
O2329      C2340   1.288       .  A
O2329     Cd2332   2.145       .  S
Zn2330     O2341   1.976       .  S
Zn2330     O2343   1.930       .  S
Zn2330     O2335   1.862       .  S
O2331      C2342   1.272       .  A
O2331     Cd3164   2.021       .  S
Cd2332     O2335   1.970       .  S
Cd2333     O2346   2.121       .  S
Cd2333     O2335   1.998       .  S
O2334      C2344   1.270       .  A
O2335     Cd2336   1.983       .  S
Cd2336     O3159   2.021   1_545  S
Cd2336     O2338   2.073       .  S
O2337      C2344   1.285       .  A
C2339      O2343   1.260       .  A
C2340      C2409   1.486       .  S
C2342      O3156   1.293       .  A
C2345      O2346   1.286       .  A
O2347      C2363   1.271       .  A
O2347     Zn2353   2.009       .  S
C2348      O2364   1.273       .  A
C2348      O2361   1.270       .  A
C2348      C2454   1.457       .  S
O2349      C2362   1.273       .  A
O2349     Cd2356   2.117       .  S
O2350      C2368   1.271       .  A
O2350     Cd2359   2.044       .  S
O2351      C2365   1.293       .  A
O2351     Cd2355   2.138       .  S
O2352      C2363   1.288       .  A
O2352     Cd2355   2.143       .  S
Zn2353     O2364   1.975       .  S
Zn2353     O2366   1.930       .  S
Zn2353     O2358   1.861       .  S
O2354      C2365   1.272       .  A
O2354     Cd2359   2.023       .  S
Cd2355     O2357   2.057       .  S
Cd2355     O2358   1.970       .  S
Cd2356     O2360   2.102       .  S
Cd2356     O2369   2.116       .  S
Cd2356     O2358   1.997       .  S
O2357      C2367   1.270       .  A
O2358     Cd2359   1.983       .  S
Cd2359     O2361   2.076       .  S
O2360      C2367   1.284       .  A
C2362      O2366   1.261       .  A
C2362      C2394   1.456       .  S
C2365      C2413   1.473       .  S
C2367      C2457   1.473       .  S
C2368      O2369   1.286       .  A
C2368      C2390   1.473   1_554  S
O2370      C2386   1.273       .  A
O2370     Zn2376   1.976       .  S
C2371      O2387   1.271       .  A
C2371      O2384   1.288       .  A
O2372      C2385   1.273       .  A
O2372     Cd2379   2.117       .  S
O2373      C2391   1.270       .  A
O2373     Cd2382   2.056       .  S
O2374      C2388   1.272       .  A
O2374     Cd2378   2.022       .  S
O2375      C2386   1.269       .  A
O2375     Cd2378   2.074       .  S
Zn2376     O2387   2.011       .  S
Zn2376     O2389   1.930       .  S
Zn2376     O2381   1.860       .  S
O2377      C2388   1.293       .  A
O2377     Cd2382   2.139       .  S
Cd2378     O2380   2.044       .  S
Cd2378     O2381   1.982       .  S
Cd2379     O2383   2.116       .  S
Cd2379     O2392   2.102       .  S
Cd2379     O2381   1.996       .  S
O2380      C2390   1.271       .  A
O2381     Cd2382   1.970       .  S
Cd2382     O2384   2.145       .  S
O2383      C2390   1.285       .  A
C2385      O2389   1.261       .  A
C2385      C2432   1.456       .  S
C2386      C2477   1.457       .  S
C2388      C2437   1.473       .  S
C2391      O2392   1.284       .  A
C2391      C2480   1.472       .  S
O2393      C2409   1.271       .  A
O2393     Zn2399   2.011       .  S
C2394      O2410   1.273       .  A
C2394      O2407   1.269       .  A
O2395      C2408   1.273       .  A
O2396      C2414   1.271       .  A
O2396     Cd2405   2.042       .  S
O2397      C2411   1.293       .  A
O2397     Cd2401   2.141       .  S
O2398     Cd2401   2.147       .  S
Zn2399     O2410   1.975       .  S
Zn2399     O2412   1.930       .  S
O2400      C2411   1.272       .  A
O2400     Cd2405   2.021       .  S
Cd2401     O2403   2.058       .  S
Cd2401     O2404   1.970       .  S
Cd2402     O2406   2.101       .  S
Cd2402     O2415   2.116       .  S
Cd2402     O2404   1.997       .  S
O2403      C2413   1.270       .  A
O2404     Cd2405   1.983       .  S
O2406      C2413   1.284       .  A
C2408      O2412   1.260       .  A
C2408      C2440   1.457       .  S
C2411      C2459   1.473       .  S
C2414      O2415   1.286       .  A
O2416      C2432   1.273       .  A
O2416     Zn2422   1.974       .  S
C2417      O2433   1.271       .  A
O2418      C2431   1.273       .  A
O2418     Cd2425   2.119       .  S
O2419      C2437   1.270       .  A
O2419     Cd2428   2.057       .  S
O2420      C2434   1.272       .  A
O2421      C2432   1.269       .  A
O2421     Cd2424   2.074       .  S
Zn2422     O2433   2.011       .  S
Zn2422     O2435   1.930       .  S
Zn2422     O2427   1.861       .  S
O2423      C2434   1.293       .  A
O2423     Cd2428   2.140       .  S
Cd2424     O2427   1.983       .  S
Cd2425     O2427   1.997       .  S
O2426      C2436   1.271       .  A
Cd2428     O2430   2.144   1_655  S
O2429      C2436   1.286       .  A
C2431      O2435   1.260       .  A
C2431      C2478   1.457       .  S
C2434      C2483   1.474       .  S
C2437      O2438   1.284       .  A
O2439      C2455   1.272       .  A
O2439     Zn2445   2.013       .  S
C2440      O2456   1.273       .  A
C2440      O2453   1.269       .  A
O2441      C2454   1.273       .  A
O2441     Cd2448   2.119   1_545  S
O2442      C2460   1.271       .  A
O2442     Cd3279   2.042       .  S
O2443      C2457   1.293       .  A
O2443     Cd2447   2.139       .  S
O2444      C3283   1.288       .  A
O2444     Cd2447   2.144       .  S
Zn2445     O2456   1.977       .  S
Zn2445     O2458   1.930       .  S
Zn2445     O2450   1.861       .  S
O2446      C2457   1.272       .  A
O2446     Cd3279   2.022       .  S
Cd2447     O2449   2.056       .  S
Cd2447     O3278   1.970       .  S
Cd2448     O3280   2.104       .  S
Cd2448     O3289   2.118   1_565  S
Cd2448     O2450   1.997   1_565  S
O2449      C2459   1.270       .  A
O2450     Cd3275   1.970   1_545  S
O2450     Cd2451   1.983       .  S
Cd2451     O3270   2.042   1_545  S
Cd2451     O3274   2.022   1_545  S
Cd2451     O2453   2.074       .  S
O2452      C2459   1.284       .  A
O2452     Cd3276   2.104       .  S
C2454      O2458   1.260       .  A
C2455      O3272   1.288       .  A
C2460      O2461   1.286       .  A
C2460      C3310   1.473   1_554  S
O2461     Cd3276   2.118       .  S
O2462      C2478   1.273       .  A
O2462     Zn2468   1.976       .  S
C2463      O2479   1.271       .  A
C2463      O3304   1.288       .  A
O2464      C2477   1.273       .  A
O2464     Cd3299   2.118       .  S
O2465      C2483   1.270       .  A
O2465     Cd2474   2.057       .  S
O2466      C2480   1.272       .  A
O2466     Cd2470   2.021       .  S
O2467      C2478   1.269       .  A
O2467     Cd3298   2.074       .  S
Zn2468     O2479   2.010       .  S
Zn2468     O2481   1.930       .  S
Zn2468     O3301   1.863       .  S
O2469      C2480   1.293       .  A
O2469     Cd2474   2.139       .  S
Cd2470     O3295   2.074   1_545  S
Cd2470     O2472   2.042       .  S
Cd2470     O2473   1.983       .  S
Cd2471     O3292   2.118   1_545  S
Cd2471     O2475   2.118       .  S
Cd2471     O2484   2.104       .  S
Cd2471     O2473   1.997       .  S
O2472      C2482   1.271       .  A
O2473     Zn3296   1.863   1_545  S
O2473     Cd2474   1.970       .  S
Cd2474     O2476   2.144       .  S
O2475      C2482   1.286       .  A
O2476      C3291   1.288   1_545  A
C2477      O2481   1.261       .  A
C2482      C3288   1.473   1_556  S
C2483      O2484   1.284       .  A
O2485      C2501   1.273       .  A
O2485     Zn2491   1.975       .  S
C2486      O2502   1.271       .  A
C2486      O2499   1.288       .  A
C2486      C2808   1.485       .  S
O2487      C2500   1.273       .  A
O2487     Cd2494   2.120       .  S
O2488      C2506   1.270       .  A
O2489      C2503   1.272       .  A
O2490      C2501   1.269       .  A
O2490     Cd2493   2.072       .  S
Zn2491     O2502   2.012       .  S
Zn2491     O2504   1.930       .  S
Zn2491     O2496   1.861       .  S
O2492     Cd2497   2.141   1_455  S
Cd2493     O2495   2.040       .  S
Cd2493     O2496   1.982       .  S
Cd2494     O2498   2.120       .  S
Cd2494     O2496   1.998       .  S
O2495      C2505   1.270       .  A
O2496     Cd2497   1.970       .  S
Cd2497     O2499   2.145       .  S
O2498      C2505   1.286       .  A
C2500      O2504   1.260       .  A
C2500      C2593   1.458       .  S
C2501      C2546   1.456       .  S
C2503      C2598   1.473       .  S
C2505      C2529   1.473       .  S
C2506      O2507   1.284       .  A
C2506      C2549   1.473       .  S
O2508      C2524   1.271       .  A
O2508     Zn2514   2.012       .  S
C2509      O2522   1.269       .  A
C2509      C2569   1.456       .  S
O2510      C2523   1.273       .  A
O2511      C2529   1.270       .  A
O2511     Cd2520   2.040       .  S
O2512      C2526   1.293       .  A
O2512     Cd2516   2.142       .  S
O2513      C2524   1.289       .  A
O2513     Cd2516   2.146       .  S
Zn2514     O2525   1.976       .  S
Zn2514     O2519   1.861       .  S
O2515      C2526   1.272       .  A
O2515     Cd2520   2.019       .  S
Cd2516     O2518   2.055       .  S
Cd2516     O2519   1.970       .  S
Cd2517     O2521   2.104       .  S
Cd2517     O2530   2.120       .  S
Cd2517     O2519   1.998       .  S
O2518      C2528   1.270       .  A
O2519     Cd2520   1.982       .  S
O2521      C2528   1.284       .  A
C2523      O2527   1.260       .  A
C2523      C2601   1.457       .  S
C2526      C2620   1.473       .  S
C2528      C2572   1.473       .  S
C2529      O2530   1.286       .  A
O2531      C2547   1.273       .  A
O2531     Zn2537   1.975       .  S
C2532      O2548   1.271       .  A
C2532      O2545   1.288       .  A
C2532      C2854   1.484       .  S
O2533      C2546   1.273       .  A
O2533     Cd2540   2.116       .  S
O2534      C2552   1.270       .  A
O2535      C2549   1.272       .  A
O2535     Cd2539   2.021       .  S
O2536      C2547   1.270       .  A
O2536     Cd2539   2.075       .  S
Zn2537     O2548   2.007       .  S
Zn2537     O2550   1.930       .  S
Zn2537     O2542   1.862       .  S
O2538      C2549   1.293       .  A
O2538     Cd2543   2.140       .  S
Cd2539     O2541   2.043       .  S
Cd2539     O2542   1.982       .  S
Cd2540     O2544   2.112       .  S
Cd2540     O2542   1.996       .  S
O2541      C2551   1.271       .  A
O2542     Cd2543   1.969       .  S
Cd2543     O2545   2.146       .  S
O2544      C2551   1.285       .  A
C2546      O2550   1.261       .  A
C2547      C2592   1.457       .  S
C2551      C2575   1.471       .  S
C2552      O2553   1.283       .  A
C2552      C2595   1.473       .  S
O2554      C2570   1.271       .  A
O2554     Zn2560   2.008       .  S
C2555      O2571   1.273       .  A
C2555      O2568   1.270       .  A
C2555      C2615   1.457       .  S
O2556      C2569   1.273       .  A
O2556     Cd2563   2.117       .  S
O2557      C2575   1.271       .  A
O2557     Cd2566   2.042       .  S
O2558      C2572   1.293       .  A
O2558     Cd2562   2.139       .  S
O2559      C2570   1.288       .  A
O2559     Cd2562   2.145       .  S
Zn2560     O2573   1.930       .  S
Zn2560     O2565   1.863       .  S
O2561      C2572   1.272       .  A
O2561     Cd2566   2.021       .  S
Cd2562     O2564   2.060       .  S
Cd2562     O2565   1.970       .  S
Cd2563     O2567   2.100       .  S
Cd2563     O2576   2.113       .  S
Cd2563     O2565   1.997       .  S
O2564      C2574   1.270       .  A
O2565     Cd2566   1.983       .  S
O2567      C2574   1.283       .  A
C2569      O2573   1.261       .  A
C2570      C2708   1.484       .  S
C2574      C2618   1.473       .  S
C2575      O2576   1.285       .  A
O2577      C2593   1.273       .  A
O2577     Zn2583   1.976       .  S
C2578      O2594   1.271       .  A
C2578      O2591   1.288       .  A
C2578      C2762   1.483       .  S
O2579      C2592   1.273       .  A
O2579     Cd2586   2.117       .  S
O2580      C2598   1.270       .  A
O2580     Cd2589   2.058       .  S
O2581      C2595   1.273       .  A
O2582      C2593   1.269       .  A
O2582     Cd2585   2.076       .  S
Zn2583     O2594   2.011       .  S
Zn2583     O2596   1.932       .  S
Zn2583     O2588   1.861       .  S
O2584      C2595   1.292       .  A
Cd2585     O2587   2.044       .  S
Cd2585     O2588   1.982       .  S
Cd2586     O2590   2.115       .  S
Cd2586     O2599   2.102       .  S
Cd2586     O2588   1.997       .  S
O2587      C2597   1.271       .  A
O2588     Cd2589   1.969       .  S
Cd2589     O2591   2.142       .  S
O2590      C2597   1.285       .  A
C2592      O2596   1.260       .  A
C2597      C2621   1.472       .  S
C2598      O2599   1.284       .  A
O2600      C2616   1.271       .  A
O2600     Zn2606   2.012       .  S
C2601      O2617   1.273       .  A
C2601      O2614   1.270       .  A
O2602      C2615   1.273       .  A
O2603      C2621   1.271       .  A
O2603     Cd2612   2.044       .  S
O2604      C2618   1.292       .  A
O2604     Cd2608   2.138       .  S
O2605      C2616   1.288       .  A
O2605     Cd2608   2.142       .  S
Zn2606     O2617   1.975       .  S
Zn2606     O2611   1.860       .  S
O2607      C2618   1.273       .  A
O2607     Cd2612   2.025       .  S
Cd2608     O2610   2.057       .  S
Cd2608     O2611   1.969       .  S
Cd2609     O2613   2.102       .  S
Cd2609     O2622   2.115       .  S
Cd2609     O2611   1.996       .  S
O2610      C2620   1.270       .  A
O2611     Cd2612   1.982       .  S
Cd2612     O2614   2.075       .  S
O2613      C2620   1.284       .  A
C2615      O2619   1.260       .  A
C2621      O2622   1.286       .  A
O2623      C2639   1.273       .  A
O2623     Zn2629   1.975       .  S
C2624      O2640   1.271       .  A
C2624      O2637   1.288       .  A
C2624      C3199   1.485       .  S
O2625      C2638   1.273       .  A
O2625     Cd2632   2.119       .  S
O2626      C2644   1.270       .  A
O2626     Cd2635   2.057       .  S
O2627      C2641   1.272       .  A
O2628      C2639   1.269       .  A
O2628     Cd2631   2.074       .  S
Zn2629     O2640   2.010       .  S
Zn2629     O2642   1.930       .  S
Zn2629     O2634   1.861       .  S
O2630     Cd2635   2.141       .  S
Cd2631     O2633   2.041       .  S
Cd2631     O2634   1.982       .  S
Cd2632     O2636   2.116       .  S
Cd2632     O2645   2.101       .  S
Cd2632     O2634   1.997       .  S
O2633      C2643   1.271       .  A
O2634     Cd2635   1.970       .  S
Cd2635     O2637   2.146       .  S
O2636      C2643   1.286       .  A
C2638      O2642   1.261       .  A
C2638      C2685   1.457       .  S
C2639      C2730   1.456       .  S
C2641      C2690   1.473       .  S
C2643      C2667   1.472       .  S
C2644      O2645   1.284       .  A
C2644      C2733   1.473       .  S
O2646      C2662   1.271       .  A
O2646     Zn2652   2.010       .  S
C2647      O2663   1.273       .  A
C2647      O2660   1.269       .  A
C2647      C2753   1.456       .  S
O2648      C2661   1.273       .  A
O2649      C2667   1.271       .  A
O2649     Cd2658   2.041       .  S
O2650      C2664   1.293       .  A
O2650     Cd2654   2.141       .  S
O2651      C2662   1.289       .  A
O2651     Cd2654   2.147       .  S
Zn2652     O2663   1.975       .  S
Zn2652     O2657   1.862       .  S
O2653      C2664   1.272       .  A
O2653     Cd2658   2.020       .  S
Cd2654     O2656   2.057       .  S
Cd2654     O2657   1.970       .  S
Cd2655     O2659   2.101       .  S
Cd2655     O2668   2.115       .  S
Cd2655     O2657   1.997       .  S
O2656      C2666   1.270       .  A
O2657     Cd2658   1.982       .  S
Cd2658     O2660   2.074       .  S
O2659      C2666   1.284       .  A
C2661      O2665   1.261   1_655  A
C2661      C2693   1.457       .  S
C2664      C2712   1.473       .  S
C2666      C2756   1.473       .  S
C2667      O2668   1.286       .  A
O2669      C2685   1.273       .  A
O2669     Zn2675   1.976       .  S
C2670      O2686   1.271       .  A
C2670      O2683   1.288       .  A
C2670      C3291   1.485       .  S
O2671      C2684   1.273       .  A
O2671     Cd2678   2.119       .  S
O2672      C2690   1.270       .  A
O2673      C2687   1.272       .  A
O2673     Cd2677   2.022       .  S
O2674      C2685   1.269       .  A
O2674     Cd2677   2.074       .  S
Zn2675     O2686   2.012       .  S
Zn2675     O2688   1.930       .  S
Zn2675     O2680   1.862       .  S
O2676      C2687   1.293       .  A
O2676     Cd2681   2.140       .  S
Cd2677     O2679   2.042       .  S
Cd2677     O2680   1.983       .  S
Cd2678     O2682   2.119       .  S
Cd2678     O2680   1.997       .  S
O2679      C2689   1.271       .  A
O2680     Cd2681   1.970       .  S
Cd2681     O2683   2.144       .  S
O2682      C2689   1.286       .  A
C2684      O2688   1.260       .  A
C2684      C2731   1.457       .  S
C2687      C2736   1.473       .  S
C2689      C2713   1.473       .  S
C2690      O2691   1.284       .  A
O2692      C2708   1.272       .  A
O2692     Zn2698   2.012       .  S
C2693      O2709   1.273       .  A
C2693      O2706   1.269       .  A
O2694      C2707   1.273       .  A
O2694     Cd2701   2.119       .  S
O2695      C2713   1.271       .  A
O2695     Cd2704   2.042       .  S
O2696      C2710   1.293       .  A
O2696     Cd2700   2.139       .  S
O2697      C2708   1.288       .  A
O2697     Cd2700   2.143       .  S
Zn2698     O2711   1.930       .  S
Zn2698     O2703   1.861       .  S
O2699      C2710   1.272       .  A
O2699     Cd2704   2.022       .  S
Cd2700     O2702   2.055       .  S
Cd2700     O2703   1.970       .  S
Cd2701     O2705   2.103       .  S
Cd2701     O2714   2.118       .  S
Cd2701     O2703   1.997       .  S
O2702      C2712   1.270       .  A
O2703     Cd2704   1.982       .  S
O2705      C2712   1.284       .  A
C2707      O2711   1.260       .  A
C2707      C2739   1.457       .  S
C2710      C2758   1.473       .  S
C2713      O2714   1.286       .  A
O2715      C2731   1.273       .  A
O2715     Zn2721   1.976       .  S
C2716      O2732   1.271       .  A
C2716      O2729   1.288       .  A
C2716      C3245   1.484       .  S
O2717      C2730   1.273       .  A
O2717     Cd2724   2.117       .  S
O2718      C2736   1.270       .  A
O2719      C2733   1.272       .  A
O2720      C2731   1.269       .  A
O2720     Cd2723   2.075       .  S
Zn2721     O2732   2.010       .  S
Zn2721     O2734   1.930       .  S
Zn2721     O2726   1.861       .  S
O2722      C2733   1.293       .  A
Cd2723     O2725   2.044       .  S
Cd2723     O2726   1.982       .  S
Cd2724     O2728   2.114       .  S
Cd2724     O2726   1.997       .  S
O2725      C2735   1.271       .  A
O2726     Cd2727   1.970       .  S
Cd2727     O2729   2.144       .  S
O2728      C2735   1.285       .  A
C2730      O2734   1.261       .  A
C2735      C2759   1.472       .  S
C2736      O2737   1.284       .  A
O2738      C2754   1.271       .  A
O2738     Zn2744   2.008       .  S
C2739      O2752   1.270       .  A
O2740      C2753   1.273       .  A
O2741      C2759   1.271       .  A
O2741     Cd2750   2.044       .  S
O2742      C2756   1.293       .  A
O2742     Cd2746   2.138       .  S
O2743      C2754   1.288       .  A
O2743     Cd2746   2.143       .  S
Zn2744     O2755   1.974       .  S
Zn2744     O2749   1.861       .  S
O2745      C2756   1.272       .  A
O2745     Cd2750   2.023       .  S
Cd2746     O2748   2.059       .  S
Cd2746     O2749   1.970       .  S
Cd2747     O2751   2.101       .  S
Cd2747     O2760   2.114       .  S
Cd2747     O2749   1.997       .  S
O2748      C2758   1.270       .  A
O2749     Cd2750   1.983       .  S
O2751      C2758   1.284       .  A
C2753      O2757   1.261       .  A
C2759      O2760   1.285       .  A
O2761      C2777   1.273       .  A
O2761     Zn2767   1.974       .  S
C2762      O2778   1.271       .  A
C2762      O2775   1.288       .  A
O2763      C2776   1.273       .  A
O2763     Cd2770   2.118       .  S
O2764      C2782   1.270       .  A
O2764     Cd2773   2.058       .  S
O2765      C2779   1.272       .  A
O2765     Cd2769   2.023       .  S
O2766      C2777   1.270       .  A
O2766     Cd2769   2.076       .  S
Zn2767     O2778   2.009       .  S
Zn2767     O2780   1.930       .  S
Zn2767     O2772   1.861       .  S
O2768      C2779   1.293       .  A
O2768     Cd2773   2.138       .  S
Cd2769     O2771   2.043       .  S
Cd2769     O2772   1.983       .  S
Cd2770     O2774   2.116       .  S
Cd2770     O2783   2.102       .  S
Cd2770     O2772   1.997       .  S
O2771      C2781   1.271       .  A
O2772     Cd2773   1.970       .  S
Cd2773     O2775   2.143       .  S
O2774      C2781   1.286       .  A
C2776      O2780   1.260       .  A
C2776      C2823   1.457       .  S
C2777      C2868   1.457       .  S
C2779      C2828   1.473       .  S
C2781      C2805   1.472       .  S
C2782      O2783   1.284       .  A
C2782      C2871   1.473       .  S
O2784      C2800   1.271       .  A
O2784     Zn2790   2.011       .  S
C2785      O2801   1.273       .  A
C2785      O2798   1.269       .  A
C2785      C2891   1.457       .  S
O2786      C2799   1.273       .  A
O2786     Cd2793   2.117       .  S
O2787      C2805   1.271       .  A
O2787     Cd2796   2.043       .  S
O2788      C2802   1.293       .  A
O2788     Cd2792   2.140       .  S
O2789      C2800   1.288       .  A
O2789     Cd2792   2.145       .  S
Zn2790     O2801   1.977       .  S
Zn2790     O2803   1.930       .  S
Zn2790     O2795   1.862       .  S
O2791      C2802   1.272       .  A
O2791     Cd2796   2.021       .  S
Cd2792     O2794   2.057       .  S
Cd2792     O2795   1.970       .  S
Cd2793     O2797   2.102       .  S
Cd2793     O2806   2.116       .  S
Cd2793     O2795   1.997       .  S
O2794      C2804   1.270       .  A
O2795     Cd2796   1.983       .  S
Cd2796     O2798   2.074       .  S
O2797      C2804   1.284       .  A
C2799      O2803   1.261       .  A
C2799      C2831   1.456       .  S
C2800      C3030   1.485       .  S
C2802      C2850   1.472       .  S
C2804      C2894   1.473       .  S
C2805      O2806   1.286       .  A
O2807      C2823   1.273       .  A
O2807     Zn2813   1.976       .  S
C2808      O2824   1.271       .  A
O2809      C2822   1.273       .  A
O2810      C2828   1.270       .  A
O2810     Cd2819   2.058       .  S
O2811      C2825   1.272       .  A
O2811     Cd2815   2.021       .  S
O2812      C2823   1.269       .  A
Zn2813     O2824   2.010       .  S
Zn2813     O2826   1.930       .  S
Zn2813     O2818   1.862       .  S
O2814      C2825   1.293       .  A
O2814     Cd2819   2.140       .  S
Cd2815     O2817   2.042       .  S
Cd2816     O2820   2.115       .  S
Cd2816     O2829   2.101       .  S
O2817      C2827   1.271       .  A
Cd2819     O2821   2.146       .  S
O2820      C2827   1.286       .  A
C2822      O2826   1.261       .  A
C2822      C2869   1.457       .  S
C2825      C2874   1.473       .  S
C2828      O2829   1.284       .  A
O2830      C2846   1.271       .  A
O2830     Zn2836   2.010       .  S
C2831      O2847   1.273       .  A
C2831      O2844   1.269       .  A
O2832      C2845   1.273       .  A
O2832     Cd2839   2.118   1_565  S
O2833      C2851   1.271       .  A
O2834      C2848   1.293       .  A
O2834     Cd2838   2.139       .  S
O2835     Cd2838   2.144       .  S
Zn2836     O2847   1.975       .  S
Zn2836     O2849   1.930       .  S
Zn2836     O2841   1.860       .  S
O2837      C2848   1.272       .  A
Cd2838     O2840   2.056       .  S
Cd2839     O2841   1.996   1_545  S
O2840      C2850   1.270       .  A
O2841     Cd2842   1.982       .  S
Cd2842     O2844   2.074       .  S
O2843      C2850   1.284       .  A
C2845      O2849   1.260       .  A
C2845      C2877   1.457       .  S
C2846      C2984   1.484       .  S
C2848      C2896   1.473       .  S
C2851      O2852   1.286       .  A
O2853      C2869   1.273       .  A
O2853     Zn2859   1.976       .  S
C2854      O2870   1.271       .  A
O2855      C2868   1.273       .  A
O2855     Cd2862   2.119   1_655  S
O2856      C2874   1.270       .  A
O2856     Cd2865   2.055       .  S
O2857      C2871   1.272       .  A
O2858      C2869   1.269       .  A
O2858     Cd2861   2.074   1_655  S
Zn2859     O2870   2.011       .  S
Zn2859     O2872   1.930       .  S
Zn2859     O2864   1.861       .  S
O2860      C2871   1.293       .  A
O2860     Cd2865   2.140       .  S
Cd2861     O2864   1.982   1_455  S
Cd2862     O2864   1.997   1_455  S
O2863      C2873   1.271       .  A
Cd2865     O2867   2.143       .  S
O2866      C2873   1.286       .  A
C2868      O2872   1.260       .  A
C2874      O2875   1.284       .  A
O2876      C2892   1.271       .  A
O2876     Zn2882   2.010       .  S
C2877      O2893   1.273       .  A
C2877      O2890   1.269       .  A
O2878      C2891   1.273       .  A
O2879      C2897   1.271       .  A
O2879     Cd2888   2.041       .  S
O2880      C2894   1.293       .  A
O2880     Cd2884   2.140       .  S
O2881     Cd2884   2.144   1_455  S
Zn2882     O2893   1.974       .  S
Zn2882     O2895   1.930       .  S
Zn2882     O2887   1.862       .  S
O2883      C2894   1.272       .  A
O2883     Cd2888   2.022       .  S
Cd2884     O2886   2.058       .  S
Cd2885     O2889   2.102       .  S
Cd2885     O2898   2.117       .  S
O2886      C2896   1.270       .  A
O2889      C2896   1.284       .  A
C2891      O2895   1.260       .  A
C2892      C2938   1.484       .  S
C2897      O2898   1.286       .  A
O2899      C2915   1.273       .  A
C2900      O2916   1.272       .  A
C2900      O2913   1.288       .  A
C2900      C3084   1.484       .  S
O2901      C2914   1.273       .  A
O2901     Cd2908   2.118       .  S
O2902      C2920   1.270       .  A
O2902     Cd2911   2.055       .  S
O2903      C2917   1.272       .  A
O2903     Cd2907   2.023       .  S
O2904      C2915   1.269       .  A
Zn2905     O2916   2.013       .  S
Zn2905     O2918   1.931       .  S
Zn2905     O2910   1.861       .  S
O2906      C2917   1.292       .  A
O2906     Cd2911   2.138       .  S
Cd2907     O2909   2.043       .  S
Cd2907     O2910   1.982       .  S
Cd2908     O2912   2.117       .  S
Cd2908     O2921   2.105       .  S
Cd2908     O2910   1.997       .  S
O2909      C2919   1.271       .  A
O2910     Cd2911   1.970       .  S
Cd2911     O2913   2.141       .  S
O2912      C2919   1.286       .  A
C2914      O2918   1.260       .  A
C2914      C2961   1.457       .  S
C2915      C3006   1.458       .  S
C2917      C2966   1.473       .  S
C2919      C2943   1.473       .  S
C2920      O2921   1.285       .  A
C2920      C3009   1.473       .  S
O2922      C2938   1.271       .  A
O2922     Zn2928   2.011       .  S
C2923      O2939   1.273       .  A
C2923      O2936   1.269       .  A
C2923      C3029   1.458       .  S
O2924      C2937   1.273       .  A
O2924     Cd2931   2.118       .  S
O2925      C2943   1.271       .  A
O2925     Cd2934   2.043       .  S
O2926      C2940   1.293       .  A
O2926     Cd2930   2.138       .  S
O2927      C2938   1.288       .  A
O2927     Cd2930   2.143       .  S
Zn2928     O2939   1.977       .  S
Zn2928     O2941   1.931       .  S
Zn2928     O2933   1.862       .  S
O2929      C2940   1.272       .  A
O2929     Cd2934   2.022       .  S
Cd2930     O2933   1.970       .  S
Cd2931     O2944   2.118       .  S
Cd2931     O2933   1.997       .  S
O2932      C2942   1.270       .  A
O2933     Cd2934   1.983       .  S
Cd2934     O2936   2.075       .  S
O2935      C2942   1.284       .  A
C2937      O2941   1.261       .  A
C2937      C2969   1.457       .  S
C2940      C2988   1.472       .  S
C2942      C3032   1.474       .  S
C2943      O2944   1.286       .  A
O2945     Zn2951   1.974   1_545  S
C2946      O2962   1.271       .  A
C2946      O2959   1.288       .  A
O2947      C2960   1.273       .  A
O2948      C2966   1.270       .  A
O2948     Cd2957   2.059       .  S
O2949      C2963   1.272       .  A
O2949     Cd2953   2.023       .  S
O2950      C2961   1.270       .  A
Zn2951     O2962   2.007       .  S
Zn2951     O2956   1.861       .  S
O2952      C2963   1.293       .  A
O2952     Cd2957   2.139       .  S
Cd2953     O2955   2.043       .  S
Cd2953     O2956   1.982       .  S
Cd2954     O2958   2.114       .  S
Cd2954     O2967   2.099       .  S
Cd2954     O2956   1.997       .  S
O2955      C2965   1.271       .  A
O2956     Cd2957   1.969       .  S
Cd2957     O2959   2.144       .  S
O2958      C2965   1.285       .  A
C2960      O2964   1.261       .  A
C2960      C3007   1.456       .  S
C2963      C3012   1.473       .  S
C2965      C2989   1.472       .  S
C2966      O2967   1.283       .  A
O2968      C2984   1.271       .  A
O2968     Zn2974   2.009       .  S
C2969      O2985   1.273       .  A
C2969      O2982   1.270       .  A
O2970      C2983   1.273       .  A
O2970     Cd2977   2.116       .  S
O2971      C2989   1.271       .  A
O2971     Cd2980   2.043       .  S
O2972      C2986   1.293       .  A
O2973      C2984   1.288       .  A
O2973     Cd2976   2.145       .  S
Zn2974     O2985   1.975       .  S
Zn2974     O2987   1.930       .  S
Zn2974     O2979   1.860       .  S
O2975      C2986   1.272       .  A
Cd2976     O2979   1.969       .  S
Cd2977     O2990   2.113       .  S
Cd2977     O2979   1.996       .  S
O2978      C2988   1.270       .  A
O2979     Cd2980   1.982       .  S
Cd2980     O2982   2.075       .  S
O2981      C2988   1.284       .  A
C2983      O2987   1.261       .  A
C2983      C3015   1.456       .  S
C2986      C3034   1.473       .  S
C2989      O2990   1.285       .  A
O2991      C3007   1.273       .  A
O2991     Zn2997   1.976       .  S
C2992      O3008   1.271       .  A
C2992      O3005   1.289       .  A
O2993      C3006   1.273       .  A
O2994      C3012   1.270       .  A
O2994     Cd3003   2.057       .  S
O2995      C3009   1.271       .  A
O2995     Cd2999   2.019       .  S
O2996      C3007   1.269       .  A
O2996     Cd2999   2.072       .  S
Zn2997     O3008   2.011       .  S
Zn2997     O3002   1.862       .  S
O2998      C3009   1.293       .  A
O2998     Cd3003   2.143       .  S
Cd2999     O3001   2.040       .  S
Cd2999     O3002   1.983       .  S
Cd3000     O3004   2.117       .  S
Cd3000     O3013   2.102       .  S
Cd3000     O3002   1.997       .  S
O3001      C3011   1.270       .  A
O3002     Cd3003   1.970       .  S
Cd3003     O3005   2.148       .  S
O3004      C3011   1.286       .  A
C3006      O3010   1.260       .  A
C3011      C3035   1.472       .  S
C3012      O3013   1.284       .  A
O3014      C3030   1.271       .  A
O3014     Zn3020   2.012       .  S
C3015      O3031   1.273       .  A
C3015      O3028   1.269       .  A
O3016      C3029   1.273       .  A
O3016     Cd3023   2.120       .  S
O3017      C3035   1.270       .  A
O3017     Cd3026   2.041       .  S
O3018     Cd3022   2.142       .  S
O3019      C3030   1.289       .  A
O3019     Cd3022   2.146       .  S
Zn3020     O3031   1.974       .  S
Zn3020     O3033   1.930       .  S
Zn3020     O3025   1.862       .  S
O3021      C3032   1.272       .  A
Cd3022     O3024   2.056       .  S
Cd3022     O3025   1.970       .  S
Cd3023     O3027   2.102       .  S
Cd3023     O3036   2.117       .  S
Cd3023     O3025   1.997       .  S
O3024      C3034   1.270       .  A
O3025     Cd3026   1.983       .  S
Cd3026     O3028   2.073       .  S
O3027      C3034   1.284       .  A
C3029      O3033   1.260       .  A
C3035      O3036   1.286       .  A
O3037      C3053   1.273       .  A
O3037     Zn3043   1.976       .  S
C3038      O3054   1.271       .  A
C3038      O3051   1.288       .  A
O3039      C3052   1.273       .  A
O3040      C3058   1.270       .  A
O3040     Cd3049   2.057       .  S
O3041      C3055   1.273       .  A
O3041     Cd3045   2.025       .  S
O3042      C3053   1.270       .  A
O3042     Cd3045   2.076       .  S
Zn3043     O3054   2.011       .  S
Zn3043     O3048   1.860       .  S
O3044      C3055   1.292       .  A
O3044     Cd3049   2.137       .  S
Cd3045     O3047   2.045       .  S
Cd3045     O3048   1.982       .  S
Cd3046     O3050   2.114       .  S
Cd3046     O3059   2.102       .  S
Cd3046     O3048   1.996       .  S
O3047      C3057   1.271       .  A
O3048     Cd3049   1.969       .  S
Cd3049     O3051   2.141       .  S
O3050      C3057   1.285       .  A
C3052      O3056   1.261       .  A
C3052      C3099   1.456       .  S
C3053      C3144   1.458       .  S
C3055      C3104   1.473       .  S
C3057      C3081   1.472       .  S
C3058      O3059   1.284       .  A
C3058      C3147   1.473       .  S
O3060      C3076   1.271       .  A
O3060     Zn3066   2.010       .  S
C3061      O3077   1.273       .  A
C3061      O3074   1.269       .  A
C3061      C3167   1.458       .  S
O3062      C3075   1.273       .  A
O3062     Cd3069   2.116       .  S
O3063      C3081   1.271       .  A
O3063     Cd3072   2.045       .  S
O3064      C3078   1.292       .  A
O3065      C3076   1.288       .  A
O3065     Cd3068   2.142       .  S
Zn3066     O3077   1.977       .  S
Zn3066     O3079   1.931       .  S
Zn3066     O3071   1.861       .  S
O3067      C3078   1.273       .  A
Cd3068     O3070   2.057       .  S
Cd3068     O3071   1.969       .  S
Cd3069     O3073   2.103       .  S
Cd3069     O3082   2.114       .  S
Cd3069     O3071   1.996       .  S
O3070      C3080   1.270       .  A
O3071     Cd3072   1.982       .  S
Cd3072     O3074   2.076       .  S
O3073      C3080   1.284       .  A
C3075      O3079   1.261       .  A
C3075      C3107   1.456       .  S
C3076      C3191   1.483       .  S
C3078      C3126   1.472       .  S
C3080      C3170   1.473       .  S
C3081      O3082   1.285       .  A
O3083      C3099   1.272       .  A
C3084      O3100   1.271       .  A
C3084      O3097   1.288       .  A
O3085      C3098   1.273       .  A
O3085     Cd3092   2.116       .  S
O3086      C3104   1.270       .  A
O3086     Cd3095   2.059       .  S
O3087      C3101   1.272       .  A
O3087     Cd3091   2.021       .  S
O3088      C3099   1.269       .  A
Zn3089     O3100   2.007       .  S
Zn3089     O3102   1.929       .  S
Zn3089     O3094   1.863       .  S
O3090      C3101   1.293       .  A
O3090     Cd3095   2.140       .  S
Cd3091     O3093   2.042       .  S
Cd3091     O3094   1.983       .  S
Cd3092     O3096   2.114       .  S
Cd3092     O3105   2.100       .  S
Cd3092     O3094   1.997       .  S
O3093      C3103   1.271       .  A
O3094     Cd3095   1.970       .  S
Cd3095     O3097   2.146       .  S
O3096      C3103   1.285       .  A
C3098      O3102   1.261       .  A
C3098      C3145   1.456       .  S
C3101      C3150   1.473       .  S
C3103      C3127   1.471       .  S
C3104      O3105   1.283       .  A
O3106      C3122   1.271       .  A
O3106     Zn3112   2.009       .  S
C3107      O3123   1.273       .  A
C3107      O3120   1.269       .  A
O3108      C3121   1.273       .  A
O3108     Cd3115   2.118       .  S
O3109      C3127   1.271       .  A
O3109     Cd3118   2.042       .  S
O3110      C3124   1.293       .  A
O3110     Cd3114   2.142       .  S
O3111      C3122   1.289       .  A
O3111     Cd3114   2.147       .  S
Zn3112     O3123   1.974       .  S
Zn3112     O3125   1.929       .  S
Zn3112     O3117   1.862       .  S
O3113      C3124   1.272       .  A
O3113     Cd3118   2.021       .  S
Cd3114     O3117   1.970       .  S
Cd3115     O3128   2.114       .  S
Cd3115     O3117   1.997       .  S
O3116      C3126   1.270       .  A
O3117     Cd3118   1.983       .  S
Cd3118     O3120   2.075       .  S
O3119      C3126   1.283       .  A
C3121      O3125   1.260       .  A
C3121      C3153   1.457       .  S
C3122      C3283   1.485       .  S
C3124      C3172   1.473       .  S
C3127      O3128   1.285       .  A
O3129     Zn3135   1.975   1_455  S
C3130      O3146   1.272       .  A
C3130      O3143   1.289       .  A
O3131      C3144   1.273       .  A
O3132      C3150   1.270       .  A
O3132     Cd3141   2.055       .  S
O3133      C3147   1.272       .  A
O3133     Cd3137   2.020       .  S
O3134      C3145   1.269       .  A
Zn3135     O3146   2.013       .  S
Zn3135     O3140   1.861       .  S
O3136      C3147   1.293       .  A
O3136     Cd3141   2.142       .  S
Cd3137     O3139   2.041       .  S
Cd3137     O3140   1.982       .  S
Cd3138     O3142   2.120       .  S
Cd3138     O3151   2.104       .  S
Cd3138     O3140   1.997       .  S
O3139      C3149   1.270       .  A
O3140     Cd3141   1.970       .  S
Cd3141     O3143   2.147       .  S
O3142      C3149   1.286       .  A
C3144      O3148   1.260       .  A
C3149      C3173   1.473       .  S
C3150      O3151   1.284       .  A
O3152      C3168   1.272       .  A
O3152     Zn3158   2.014       .  S
C3153      O3169   1.273       .  A
C3153      O3166   1.269       .  A
O3154      C3167   1.273       .  A
O3154     Cd3161   2.120       .  S
O3155      C3173   1.270       .  A
O3155     Cd3164   2.041       .  S
O3156     Cd3160   2.141       .  S
O3157      C3168   1.288       .  A
O3157     Cd3160   2.145       .  S
Zn3158     O3169   1.976       .  S
Zn3158     O3171   1.930       .  S
Zn3158     O3163   1.862       .  S
O3159      C3170   1.272       .  A
Cd3160     O3163   1.970       .  S
Cd3161     O3174   2.121       .  S
Cd3161     O3163   1.998       .  S
O3162      C3172   1.270       .  A
O3163     Cd3164   1.983       .  S
Cd3164     O3166   2.073       .  S
O3165      C3172   1.285       .  A
C3167      O3171   1.260       .  A
C3168      C3237   1.486       .  S
C3173      O3174   1.286       .  A
O3175      C3191   1.271       .  A
O3175     Zn3181   2.009       .  S
C3176      O3192   1.273       .  A
C3176      O3189   1.270       .  A
C3176      C3282   1.457       .  S
O3177      C3190   1.273       .  A
O3177     Cd3184   2.117       .  S
O3178      C3196   1.271       .  A
O3178     Cd3187   2.044       .  S
O3179      C3193   1.293       .  A
O3179     Cd3183   2.138       .  S
O3180      C3191   1.288       .  A
O3180     Cd3183   2.143       .  S
Zn3181     O3192   1.975       .  S
Zn3181     O3194   1.930       .  S
Zn3181     O3186   1.861       .  S
O3182      C3193   1.272       .  A
O3182     Cd3187   2.023       .  S
Cd3183     O3185   2.057       .  S
Cd3183     O3186   1.970       .  S
Cd3184     O3188   2.102       .  S
Cd3184     O3197   2.116       .  S
Cd3184     O3186   1.997       .  S
O3185      C3195   1.270       .  A
O3186     Cd3187   1.983       .  S
Cd3187     O3189   2.076       .  S
O3188      C3195   1.284       .  A
C3190      O3194   1.261       .  A
C3190      C3222   1.456       .  S
C3193      C3241   1.473       .  S
C3195      C3285   1.473       .  S
C3196      O3197   1.286       .  A
C3196      C3218   1.473   1_554  S
O3198      C3214   1.273       .  A
O3198     Zn3204   1.976       .  S
C3199      O3215   1.271       .  A
C3199      O3212   1.288       .  A
O3200      C3213   1.273       .  A
O3200     Cd3207   2.117       .  S
O3201      C3219   1.270       .  A
O3201     Cd3210   2.056       .  S
O3202      C3216   1.272       .  A
O3202     Cd3206   2.022       .  S
O3203      C3214   1.269       .  A
O3203     Cd3206   2.074       .  S
Zn3204     O3215   2.011       .  S
Zn3204     O3217   1.930       .  S
Zn3204     O3209   1.860       .  S
O3205      C3216   1.293       .  A
O3205     Cd3210   2.139       .  S
Cd3206     O3208   2.044       .  S
Cd3206     O3209   1.982       .  S
Cd3207     O3211   2.116       .  S
Cd3207     O3220   2.102       .  S
Cd3207     O3209   1.996       .  S
O3208      C3218   1.271       .  A
O3209     Cd3210   1.970       .  S
Cd3210     O3212   2.145       .  S
O3211      C3218   1.285       .  A
C3213      O3217   1.261       .  A
C3213      C3260   1.456       .  S
C3214      C3305   1.457       .  S
C3216      C3265   1.473       .  S
C3219      O3220   1.284       .  A
C3219      C3308   1.472       .  S
O3221      C3237   1.271       .  A
O3221     Zn3227   2.011       .  S
C3222      O3238   1.273       .  A
C3222      O3235   1.269       .  A
O3223      C3236   1.273       .  A
O3224      C3242   1.271       .  A
O3224     Cd3233   2.042       .  S
O3225      C3239   1.293       .  A
O3225     Cd3229   2.141       .  S
O3226     Cd3229   2.147       .  S
Zn3227     O3238   1.975       .  S
Zn3227     O3240   1.930       .  S
O3228      C3239   1.272       .  A
O3228     Cd3233   2.021       .  S
Cd3229     O3231   2.058       .  S
Cd3229     O3232   1.970       .  S
Cd3230     O3234   2.101       .  S
Cd3230     O3243   2.116       .  S
Cd3230     O3232   1.997       .  S
O3231      C3241   1.270       .  A
O3232     Cd3233   1.983       .  S
O3234      C3241   1.284       .  A
C3236      O3240   1.260       .  A
C3236      C3268   1.457       .  S
C3239      C3287   1.473       .  S
C3242      O3243   1.286       .  A
O3244      C3260   1.273       .  A
O3244     Zn3250   1.974       .  S
C3245      O3261   1.271       .  A
O3246      C3259   1.273       .  A
O3246     Cd3253   2.119       .  S
O3247      C3265   1.270       .  A
O3247     Cd3256   2.057       .  S
O3248      C3262   1.272       .  A
O3249      C3260   1.269       .  A
O3249     Cd3252   2.074       .  S
Zn3250     O3261   2.011       .  S
Zn3250     O3263   1.930       .  S
Zn3250     O3255   1.861       .  S
O3251      C3262   1.293       .  A
O3251     Cd3256   2.140       .  S
Cd3252     O3255   1.983       .  S
Cd3253     O3255   1.997       .  S
O3254      C3264   1.271       .  A
Cd3256     O3258   2.144   1_655  S
O3257      C3264   1.286       .  A
C3259      O3263   1.260       .  A
C3259      C3306   1.457       .  S
C3262      C3311   1.474       .  S
C3265      O3266   1.284       .  A
O3267      C3283   1.272       .  A
O3267     Zn3273   2.013       .  S
C3268      O3284   1.273       .  A
C3268      O3281   1.269       .  A
O3269      C3282   1.273       .  A
O3269     Cd3276   2.119       .  S
O3270      C3288   1.271   1_565  A
O3271      C3285   1.293       .  A
O3271     Cd3275   2.139       .  S
O3272     Cd3275   2.144   1_545  S
Zn3273     O3284   1.977       .  S
Zn3273     O3286   1.930       .  S
Zn3273     O3278   1.861       .  S
O3274      C3285   1.272       .  A
Cd3275     O3277   2.056       .  S
Cd3276     O3278   1.997       .  S
O3277      C3287   1.270       .  A
O3278     Cd3279   1.983       .  S
Cd3279     O3281   2.074       .  S
O3280      C3287   1.284       .  A
C3282      O3286   1.260       .  A
C3288      O3289   1.286       .  A
O3290      C3306   1.273       .  A
O3290     Zn3296   1.976       .  S
C3291      O3307   1.271       .  A
O3292      C3305   1.273       .  A
O3293      C3311   1.270       .  A
O3293     Cd3302   2.057       .  S
O3294      C3308   1.272       .  A
O3294     Cd3298   2.021       .  S
O3295      C3306   1.269       .  A
Zn3296     O3307   2.010       .  S
Zn3296     O3309   1.930       .  S
O3297      C3308   1.293       .  A
O3297     Cd3302   2.139       .  S
Cd3298     O3300   2.042       .  S
Cd3298     O3301   1.983       .  S
Cd3299     O3303   2.118       .  S
Cd3299     O3312   2.104       .  S
Cd3299     O3301   1.997       .  S
O3300      C3310   1.271       .  A
O3301     Cd3302   1.970       .  S
Cd3302     O3304   2.144       .  S
O3303      C3310   1.286       .  A
C3305      O3309   1.261       .  A
C3311      O3312   1.284       .  A
