geometry optimzed in LAMMPS
_audit_creation_date              2020-12-01 
_audit_creation_method            'lammps2cif' 
_symmetry_space_group_name_H-M    'P1' 
_symmetry_Int_Tables_number       1 
_symmetry_cell_setting            triclinic 
loop_ 
_symmetry_equiv_pos_as_xyz 
  x,y,z 
_cell_length_a                    32.88878809 
_cell_length_b                    32.908864747812 
_cell_length_c                    50.98585034643695 
_cell_angle_alpha                 89.94068095662288 
_cell_angle_beta                  89.96161122896102 
_cell_angle_gamma                 90.06010549639053 
loop_ 
_atom_site_label 
_atom_site_type_symbol 
_atom_site_fract_x 
_atom_site_fract_y 
_atom_site_fract_z 
_atom_site_charge 
O1          O  0.02321357  0.00082104  0.70791306    -0.82400
C2          C  0.10509673  0.12482767  0.65277861     0.97000
O3          O  0.11259105  0.08716390  0.65087539    -0.71500
O4          O  0.12872092  0.04774722  0.69389653    -0.75100
Al5        Al  0.08936187  0.03966716  0.66722586     1.49000
C6          C  0.12491045  0.04045059  0.71796617     0.92200
O7          O  0.04998015  0.10722486  0.72946109    -0.81300
O8          O  0.97116803  0.08101532  0.67285826    -0.74900
Al9        Al  0.03738765  0.05442202  0.71695735     1.90100
O10         O  0.01660420  0.13990911  0.69875261    -0.74000
O11         O  0.02388872  0.08416381  0.63323673    -0.73800
O12         O  0.07125384  0.13702153  0.66141797    -0.79500
O13         O  0.05674756  0.02706426  0.63770187    -0.77700
O14         O  0.05015301  0.06698095  0.68388205    -1.13800
O15         O  0.07345151  0.98701850  0.68087542    -0.73000
C16         C  0.04383498  0.97545463  0.69501384     0.97700
C17         C  0.03273016  0.13905185  0.72129944     0.94100
Al18       Al  0.02308627  0.10703971  0.66784695     1.55600
O19         O  0.09009694  0.03812335  0.72802824    -0.77600
C20         C  0.03527591  0.05050229  0.62402055     0.98300
C21         C  0.95740994  0.07123409  0.69516917     0.93200
O22         O  0.98125141  0.06716548  0.71432919    -0.82900
O23         O  0.46505035  0.50926921  0.70308270    -0.82400
C24         C  0.38537169  0.38654087  0.64694102     0.97000
O25         O  0.37809354  0.42423987  0.64428816    -0.71500
O26         O  0.36166638  0.46438362  0.68681980    -0.75100
Al27       Al  0.40139314  0.47195850  0.66045340     1.49000
C28         C  0.36476025  0.46906938  0.71117048     0.92200
O29         O  0.44151200  0.40077583  0.72184614    -0.81300
O30         O  0.51851081  0.43273102  0.66495758    -0.74900
Al31       Al  0.45247945  0.45482556  0.71048215     1.90100
O32         O  0.47695008  0.37139084  0.69093959    -0.74000
O33         O  0.46536284  0.42724215  0.62602862    -0.73800
O34         O  0.41957061  0.37434137  0.65510407    -0.79500
O35         O  0.43422119  0.48496021  0.63095218    -0.77700
O36         O  0.44019026  0.44407594  0.67712213    -1.13800
O37         O  0.41771963  0.52418958  0.67422312    -0.73000
C38         C  0.44599980  0.53507451  0.68958945     0.97700
C39         C  0.46071257  0.37029680  0.71340833     0.94100
Al40       Al  0.46764196  0.40482972  0.66057187     1.55600
O41         O  0.39918166  0.46881133  0.72187002    -0.77600
C42         C  0.45519356  0.46139402  0.61711687     0.98300
C43         C  0.53229901  0.44314177  0.68713781     0.93200
O44         O  0.50913423  0.44432756  0.70690383    -0.82900
O45         O  0.50618146  0.53453110  0.29675509    -0.82400
C46         C  0.62765094  0.61663446  0.35284906     0.97000
O47         O  0.58985704  0.62361896  0.35495823    -0.71500
O48         O  0.55197830  0.63931532  0.31146871    -0.75100
Al49       Al  0.54286963  0.60036172  0.33816201     1.49000
C50         C  0.54680865  0.63557385  0.28718935     0.92200
O51         O  0.61398553  0.55997746  0.27758250    -0.81300
O52         O  0.58308221  0.48319931  0.33478017    -0.74900
Al53       Al  0.56024960  0.54808144  0.28892960     1.90100
O54         O  0.64389080  0.52533711  0.30876048    -0.74000
O55         O  0.58697726  0.53719618  0.37343018    -0.73800
O56         O  0.64034491  0.58277314  0.34449359    -0.79500
O57         O  0.52915784  0.56817102  0.36774510    -0.77700
O58         O  0.57093980  0.56119983  0.32213985    -1.13800
O59         O  0.49081252  0.58407079  0.32390899    -0.73000
C60         C  0.48020169  0.55437158  0.30961431     0.97700
C61         C  0.64469821  0.54129269  0.28617931     0.94100
Al62       Al  0.61021484  0.53444345  0.33904245     1.55600
O63         O  0.54522806  0.60081614  0.27704732    -0.77600
C64         C  0.55280419  0.54803885  0.38208936     0.98300
C65         C  0.57386152  0.46888082  0.31253358     0.93200
O66         O  0.57203935  0.49182873  0.29271575    -0.82900
O67         O  0.02170995  0.94499808  0.29576425    -0.82400
C68         C  0.89521664  0.88951979  0.35462492     0.97000
O69         O  0.92876565  0.87638557  0.34594918    -0.71500
O70         O  0.98782171  0.87230598  0.31104860    -0.75100
Al71       Al  0.97764571  0.90563399  0.34141482     1.49000
C72         C  0.97263796  0.87174713  0.28828455     0.92200
O73         O  0.91163495  0.97044009  0.27963000    -0.81300
O74         O  0.93091286  0.02679636  0.32694951    -0.74900
Al75       Al  0.96492590  0.95606531  0.29134412     1.90100
O76         O  0.87416693  0.96765044  0.31487019    -0.74000
O77         O  0.94665589  0.98685692  0.37066977    -0.73800
O78         O  0.88915032  0.92742277  0.35753573    -0.79500
O79         O  0.97406751  0.92738341  0.37623854    -0.77700
O80         O  0.95179876  0.94571854  0.32464110    -1.13800
O81         O  0.02899780  0.93248098  0.33789418    -0.73000
C82         C  0.04398584  0.94271897  0.31597048     0.97700
C83         C  0.87724367  0.97158534  0.29047402     0.94100
Al84       Al  0.91366464  0.97466133  0.34113746     1.55600
O85         O  0.95356807  0.90228688  0.27991235    -0.77600
C86         C  0.96458862  0.96173482  0.38518190     0.98300
C87         C  0.95906675  0.03683389  0.31117546     0.93200
O88         O  0.97799208  0.01025037  0.29834858    -0.82900
O89         O  0.93309098  0.48921244  0.79263665    -0.82400
C90         C  0.87825847  0.61768125  0.85053989     0.97000
O91         O  0.86576371  0.58342933  0.84284106    -0.71500
O92         O  0.86166358  0.52552470  0.80764844    -0.75100
Al93       Al  0.89547337  0.53497305  0.83806291     1.49000
C94         C  0.86179131  0.54051617  0.78472509     0.92200
O95         O  0.96317840  0.59758084  0.77486362    -0.81300
O96         O  0.01529159  0.58339445  0.82167137    -0.74900
Al97       Al  0.94635084  0.54539458  0.78787440     1.90100
O98         O  0.95396466  0.63773261  0.80825588    -0.74000
O99         O  0.97692324  0.56961468  0.86597379    -0.73800
O100        O  0.91608613  0.62501760  0.85224012    -0.79500
O101        O  0.91918891  0.53862559  0.87245086    -0.77700
O102        O  0.93509462  0.56053503  0.82068819    -1.13800
O103        O  0.92189925  0.48351732  0.83485551    -0.73000
C104        C  0.93106763  0.46765080  0.81310685     0.97700
C105        C  0.96107630  0.63290149  0.78425713     0.94100
Al106      Al  0.96316194  0.60046645  0.83580390     1.55600
O107        O  0.89327948  0.55774390  0.77593797    -0.77600
C108        C  0.95372536  0.54942186  0.88065197     0.98300
C109        C  0.02597836  0.55268866  0.80826196     0.93200
O110        O  0.99989716  0.53129808  0.79655529    -0.82900
O111        O  0.52093988  0.00775713  0.79921253    -0.82400
C112        C  0.60441730  0.88600011  0.85419200     0.97000
O113        O  0.61165073  0.92380527  0.85653572    -0.71500
O114        O  0.62604163  0.96373161  0.81337654    -0.75100
Al115      Al  0.58735489  0.97140059  0.84043864     1.49000
C116        C  0.62191820  0.96899910  0.78912457     0.92200
O117        O  0.54561435  0.90007340  0.77996362    -0.81300
O118        O  0.47050582  0.93095016  0.83815845    -0.74900
Al119      Al  0.53425165  0.95378886  0.79145035     1.90100
O120        O  0.51140804  0.87031540  0.81142935    -0.74000
O121        O  0.52561992  0.92623376  0.87641732    -0.73800
O122        O  0.57012170  0.87362374  0.84633776    -0.79500
O123        O  0.55562282  0.98440169  0.87045006    -0.77700
O124        O  0.54809634  0.94314610  0.82458969    -1.13800
O125        O  0.56995370  0.02362052  0.82667699    -0.73000
C126        C  0.54034584  0.03394667  0.81215658     0.97700
C127        C  0.52632211  0.86967358  0.78854857     0.94100
Al128      Al  0.52175955  0.90370858  0.84172870     1.55600
O129        O  0.58697319  0.96902071  0.77909917    -0.77600
C130        C  0.53614253  0.96052839  0.88503377     0.98300
C131        C  0.45548671  0.93953040  0.81598553     0.93200
O132        O  0.47783965  0.94190598  0.79587702    -0.82900
O133        O  0.00698731  0.47542453  0.20428562    -0.82400
C134        C  0.12725663  0.39660368  0.14594656     0.97000
O135        O  0.08935384  0.38958454  0.14373631    -0.71500
O136        O  0.04683564  0.37305827  0.18546994    -0.75100
Al137      Al  0.04183753  0.41406511  0.15961406     1.49000
C138        C  0.04480591  0.37488637  0.21001619     0.92200
O139        O  0.11552464  0.45042774  0.22112993    -0.81300
O140        O  0.08373222  0.53012442  0.16587219    -0.74900
Al141      Al  0.06139340  0.46222541  0.21059762     1.90100
O142        O  0.14442678  0.48696912  0.19059743    -0.74000
O143        O  0.08833695  0.47833601  0.12569781    -0.73800
O144        O  0.14006962  0.43064451  0.15404016    -0.79500
O145        O  0.03040793  0.44758738  0.13024765    -0.77700
O146        O  0.07100637  0.45141611  0.17681863    -1.13800
O147        O  0.99012129  0.43248380  0.17312501    -0.73000
C148        C  0.98051975  0.45954780  0.18969719     0.97700
C149        C  0.14570540  0.47028321  0.21289037     0.94100
Al150      Al  0.11059840  0.47897276  0.16039283     1.55600
O151        O  0.04764230  0.40860331  0.22138839    -0.77600
C152        C  0.05433724  0.46831138  0.11651147     0.98300
C153        C  0.07391373  0.54313269  0.18839951     0.93200
O154        O  0.07211905  0.51904147  0.20771367    -0.82900
O155        O  0.51207685  0.03722251  0.20928269    -0.82400
C156        C  0.38731343  0.11583242  0.15396782     0.97000
O157        O  0.42493055  0.12373369  0.15151764    -0.71500
O158        O  0.46442886  0.14099691  0.19452886    -0.75100
Al159      Al  0.47304633  0.10165999  0.16787523     1.49000
C160        C  0.47057233  0.13727506  0.21874948     0.92200
O161        O  0.40490915  0.06022898  0.23005469    -0.81300
O162        O  0.43510680  0.98373731  0.17280769    -0.74900
Al163      Al  0.45821923  0.04952610  0.21777410     1.90100
O164        O  0.37413266  0.02517481  0.19946209    -0.74000
O165        O  0.42898725  0.03679689  0.13375534    -0.73800
O166        O  0.37560775  0.08193147  0.16294113    -0.79500
O167        O  0.48636494  0.06916949  0.13812995    -0.77700
O168        O  0.44613626  0.06214275  0.18463661    -1.13800
O169        O  0.52592594  0.08678846  0.18170915    -0.73000
C170        C  0.53742775  0.05785280  0.19640219     0.97700
C171        C  0.37421344  0.04085005  0.22213865     0.94100
Al172      Al  0.40682045  0.03433461  0.16852287     1.55600
O173        O  0.47249176  0.10256818  0.22894627    -0.77600
C174        C  0.46261304  0.04809262  0.12437105     0.98300
C175        C  0.44545581  0.96980785  0.19495113     0.93200
O176        O  0.44749776  0.99289999  0.21464078    -0.82900
C177        C  0.15721862  0.36402043  0.14009195    -0.04000
C178        C  0.14444137  0.32379892  0.13550035    -0.09700
C179        C  0.17299307  0.29242091  0.13291892    -0.17400
C180        C  0.21469936  0.30075367  0.13478049     0.24800
C181        C  0.22766846  0.34083022  0.13864535    -0.19000
C182        C  0.19923428  0.37218755  0.14128656    -0.08000
C183        C  0.24411690  0.26810653  0.13411695    -0.14400
C184        C  0.26895651  0.24103248  0.13502940    -0.14100
C185        C  0.29848265  0.20876396  0.13785638     0.24700
C186        C  0.33981263  0.21614032  0.13311036    -0.19500
C187        C  0.36866388  0.18558785  0.13760092    -0.08000
C188        C  0.35659678  0.14713869  0.14695579    -0.04100
C189        C  0.31488621  0.13974720  0.15107347    -0.09400
C190        C  0.28613358  0.17032519  0.14658768    -0.17000
H191        H  0.11238532  0.31636152  0.13470425     0.11100
H192        H  0.16249268  0.26153197  0.13004782     0.10400
H193        H  0.25979125  0.34774790  0.14020664     0.10300
H194        H  0.21018959  0.40271597  0.14489420     0.10900
H195        H  0.34984539  0.24575626  0.12641926     0.10900
H196        H  0.40048122  0.19236792  0.13428372     0.10900
H197        H  0.30449506  0.11059733  0.15833969     0.11000
H198        H  0.25430475  0.16419535  0.15041981     0.09900
C199        C  0.47344457  0.03739835  0.09679034    -0.04000
C200        C  0.44845213  0.01113605  0.08208991    -0.09700
C201        C  0.45729604  0.00256784  0.05575590    -0.17400
C202        C  0.49119306  0.02011730  0.04350034     0.24800
C203        C  0.51649945  0.04601955  0.05803107    -0.19000
C204        C  0.50777413  0.05453968  0.08444553    -0.08000
C205        C  0.49959999  0.01165009  0.01605100    -0.14400
C206        C  0.50563057  0.00381397  0.99310752    -0.14100
C207        C  0.51230199  0.99342030  0.96573978     0.24700
C208        C  0.52891728  0.02191748  0.94828617    -0.19500
C209        C  0.53606958  0.01148874  0.92198802    -0.08000
C210        C  0.52662211  0.97233110  0.91261111    -0.04100
C211        C  0.50942805  0.94408404  0.93019390    -0.09400
C212        C  0.50241808  0.95453682  0.95648972    -0.17000
H213        H  0.42179860  0.99739089  0.09088843     0.11100
H214        H  0.43743351  0.98242940  0.04487810     0.10400
H215        H  0.54284696  0.05987187  0.04890381     0.10300
H216        H  0.52756558  0.07502617  0.09508420     0.10900
H217        H  0.53666412  0.05214570  0.95504457     0.10900
H218        H  0.54931800  0.03401311  0.90904345     0.10900
H219        H  0.50190519  0.91366119  0.92372863     0.11000
H220        H  0.48951900  0.93212159  0.96967129     0.09900
C221        C  0.96680326  0.53905071  0.90783147    -0.04000
C222        C  0.94138819  0.51630721  0.92457132    -0.09700
C223        C  0.95321921  0.50776318  0.95042777    -0.17400
C224        C  0.99061063  0.52177793  0.96004533     0.24800
C225        C  0.01625660  0.54410162  0.94344689    -0.19000
C226        C  0.00451127  0.55265244  0.91758433    -0.08000
C227        C  0.00238941  0.51367962  0.98696521    -0.14400
C228        C  0.01174002  0.50694824  0.00955810    -0.14100
C229        C  0.02217686  0.49839183  0.03664938     0.24700
C230        C  0.06015762  0.50976773  0.04675644    -0.19500
C231        C  0.07041787  0.50067855  0.07282965    -0.08000
C232        C  0.04283875  0.47995986  0.08925287    -0.04100
C233        C  0.00459412  0.46908088  0.07899815    -0.09400
C234        C  0.99439939  0.47823164  0.05296218    -0.17000
H235        H  0.91219858  0.50534767  0.91775555     0.11100
H236        H  0.93303113  0.49043029  0.96298253     0.10400
H237        H  0.04526743  0.55515494  0.95054318     0.10300
H238        H  0.02483933  0.57025318  0.90529705     0.10900
H239        H  0.08199583  0.52540435  0.03442618     0.10900
H240        H  0.10013191  0.50942608  0.08002356     0.10900
H241        H  0.98262427  0.45310149  0.09102870     0.11000
H242        H  0.96489881  0.46926564  0.04549255     0.09900
C243        C  0.84793723  0.64972280  0.85689623    -0.04000
C244        C  0.80606528  0.64065926  0.85644557    -0.09700
C245        C  0.77709586  0.67121110  0.86024257    -0.17400
C246        C  0.78932880  0.71140725  0.86454025     0.24800
C247        C  0.83092964  0.72066208  0.86554859    -0.19000
C248        C  0.86005147  0.69005561  0.86180016    -0.08000
C249        C  0.75905327  0.74314198  0.86667409    -0.14400
C250        C  0.73258787  0.76868798  0.86704180    -0.14100
C251        C  0.69989762  0.79805500  0.86575470     0.24700
C252        C  0.70730555  0.83936584  0.87047269    -0.19500
C253        C  0.67602501  0.86797914  0.86752850    -0.08000
C254        C  0.63680729  0.85566461  0.85980982    -0.04100
C255        C  0.62949736  0.81395160  0.85569345    -0.09400
C256        C  0.66076347  0.78547875  0.85861652    -0.17000
H257        H  0.79558654  0.61001053  0.85267451     0.11100
H258        H  0.74507426  0.66356746  0.85933704     0.10400
H259        H  0.84086703  0.75165318  0.86875638     0.10300
H260        H  0.89197078  0.69814157  0.86210108     0.10900
H261        H  0.73744882  0.84957685  0.87594184     0.10900
H262        H  0.68277767  0.89979922  0.87072882     0.10900
H263        H  0.59979266  0.80332793  0.84960844     0.11000
H264        H  0.65455963  0.75368005  0.85482128     0.09900
C265        C  0.03741589  0.33739348  0.22554924    -0.04000
C266        C  0.03805860  0.33832552  0.25316475    -0.09700
C267        C  0.02778059  0.30370282  0.26777437    -0.17400
C268        C  0.01656095  0.26772968  0.25502057     0.24800
C269        C  0.01675110  0.26629096  0.22756417    -0.19000
C270        C  0.02716011  0.30077666  0.21293075    -0.08000
C271        C  0.00471033  0.23220944  0.26987900    -0.14400
C272        C  0.99552929  0.20075263  0.28065087    -0.14100
C273        C  0.98733782  0.16050994  0.29071653     0.24700
C274        C  0.01336305  0.12882690  0.28369902    -0.19500
C275        C  0.00477899  0.08907314  0.29139361    -0.08000
C276        C  0.96979476  0.08002506  0.30626835    -0.04100
C277        C  0.94428888  0.11215286  0.31403813    -0.09400
C278        C  0.95298855  0.15222908  0.30621544    -0.17000
H279        H  0.04591248  0.36598161  0.26348379     0.11100
H280        H  0.02806808  0.30516694  0.28900138     0.10400
H281        H  0.00836287  0.23860149  0.21743550     0.10300
H282        H  0.02625873  0.29900764  0.19172714     0.10900
H283        H  0.03996853  0.13471766  0.27172414     0.10900
H284        H  0.02521079  0.06519651  0.28509882     0.10900
H285        H  0.91703810  0.10614837  0.32533035     0.11000
H286        H  0.93250503  0.17651903  0.31173424     0.09900
C287        C  0.06395231  0.58647991  0.19320453    -0.04000
C288        C  0.06007710  0.61495860  0.17273050    -0.14500
C289        C  0.04779434  0.65503983  0.17816604    -0.17400
C290        C  0.03940261  0.66684511  0.20407528     0.24800
C291        C  0.04407689  0.63882599  0.22441491    -0.19000
C292        C  0.05619739  0.59918519  0.21909688    -0.08000
C293        C  0.02536265  0.70711380  0.21065591    -0.14400
C294        C  0.01361357  0.73799302  0.22098804    -0.14100
C295        C  0.00115852  0.77120179  0.23765843     0.24700
C296        C  0.00861318  0.76875671  0.26464547    -0.19500
C297        C  0.99806790  0.80090672  0.28118240    -0.08000
C298        C  0.97971243  0.83614214  0.27102239    -0.04100
C299        C  0.97129560  0.83800719  0.24395110    -0.09400
C300        C  0.98204388  0.80573900  0.22736784    -0.17000
H301        H  0.06576333  0.60608797  0.15261704     0.11100
H302        H  0.04438667  0.67654352  0.16222235     0.10400
H303        H  0.03785223  0.64752374  0.24452025     0.10300
H304        H  0.05894034  0.57828445  0.23542162     0.10900
H305        H  0.02316085  0.74212456  0.27289618     0.10900
H306        H  0.00496484  0.79844367  0.30189033     0.10900
H307        H  0.95742031  0.86481268  0.23549517     0.11000
H308        H  0.97595068  0.80797029  0.20653876     0.09900
C309        C  0.08771014  0.95246326  0.31313844    -0.04000
C310        C  0.11183014  0.96371915  0.33474955    -0.09700
C311        C  0.15217946  0.97658808  0.33095118    -0.17400
C312        C  0.16866825  0.97790605  0.30557256     0.24800
C313        C  0.14506213  0.96564952  0.28422141    -0.19000
C314        C  0.10501549  0.95314131  0.28791923    -0.08000
C315        C  0.20918639  0.99267662  0.30044607    -0.14400
C316        C  0.24072889  0.00397896  0.29073246    -0.14100
C317        C  0.27424039  0.01500832  0.27389850     0.24700
C318        C  0.27089939  0.00766912  0.24695015    -0.19500
C319        C  0.30301929  0.01706686  0.23008009    -0.08000
C320        C  0.33909274  0.03419746  0.23987124    -0.04100
C321        C  0.34207667  0.04217119  0.26696067    -0.09400
C322        C  0.30982918  0.03252421  0.28389439    -0.17000
H323        H  0.09916627  0.96373092  0.35436108     0.11100
H324        H  0.17018319  0.98604230  0.34765066     0.10400
H325        H  0.15745700  0.96642072  0.26452112     0.10300
H326        H  0.08737035  0.94449473  0.27088039     0.10900
H327        H  0.24348042  0.99421671  0.23896677     0.10900
H328        H  0.29976075  0.01048085  0.20938303     0.10900
H329        H  0.36963742  0.05499202  0.27512801     0.11000
H330        H  0.31280259  0.03835362  0.30471000     0.09900
C331        C  0.84022838  0.97954858  0.27477366    -0.04000
C332        C  0.84274991  0.98661258  0.24759175    -0.09700
C333        C  0.80811126  0.99771035  0.23333659    -0.17400
C334        C  0.77062968  0.00190005  0.24607141     0.24800
C335        C  0.76771221  0.99412692  0.27299040    -0.19000
C336        C  0.80219605  0.98301180  0.28724958    -0.08000
C337        C  0.73495582  0.01423986  0.23179161    -0.14400
C338        C  0.70306007  0.02341001  0.22175531    -0.14100
C339        C  0.66240726  0.03132475  0.21266080     0.24700
C340        C  0.63222246  0.00236431  0.21743317    -0.19500
C341        C  0.59189566  0.01062036  0.21105672    -0.08000
C342        C  0.58097902  0.04809431  0.19976875    -0.04100
C343        C  0.61162013  0.07662208  0.19409940    -0.09400
C344        C  0.65220897  0.06830778  0.20065609    -0.17000
H345        H  0.87158959  0.98432867  0.23744607     0.11100
H346        H  0.81066362  0.00348489  0.21247801     0.10400
H347        H  0.73882376  0.99710493  0.28303536     0.10300
H348        H  0.79917993  0.97790410  0.30815187     0.10900
H349        H  0.63970377  0.97371255  0.22674116     0.10900
H350        H  0.56904624  0.98791937  0.21556149     0.10900
H351        H  0.60401768  0.10580394  0.18559466     0.11000
H352        H  0.67537834  0.09103568  0.19698664     0.09900
C353        C  0.86237706  0.85997963  0.36067776    -0.04000
C354        C  0.87052659  0.81800185  0.36028544    -0.09700
C355        C  0.83918842  0.78974743  0.36359767    -0.17400
C356        C  0.79914892  0.80284694  0.36730764     0.24800
C357        C  0.79072713  0.84456936  0.36822895    -0.19000
C358        C  0.82215454  0.87299588  0.36500764    -0.08000
C359        C  0.76687291  0.77317576  0.36892786    -0.14400
C360        C  0.74160723  0.74648827  0.36880088    -0.14100
C361        C  0.71316172  0.71318804  0.36683375     0.24700
C362        C  0.67165182  0.71940536  0.37141243    -0.19500
C363        C  0.64389794  0.68761352  0.36772390    -0.08000
C364        C  0.65730584  0.64911421  0.35935998    -0.04100
C365        C  0.69921485  0.64291801  0.35544560    -0.09400
C366        C  0.72687027  0.67473248  0.35913638    -0.17000
H367        H  0.90107874  0.80690672  0.35694197     0.11100
H368        H  0.84611226  0.75758941  0.36276345     0.10400
H369        H  0.75982298  0.85511909  0.37095613     0.10300
H370        H  0.81480803  0.90506506  0.36517326     0.10900
H371        H  0.66062947  0.74902759  0.37731792     0.10900
H372        H  0.61185943  0.69347219  0.37081463     0.10900
H373        H  0.71057607  0.61376536  0.34889518     0.11000
H374        H  0.75889949  0.66953787  0.35546438     0.09900
C375        C  0.54107360  0.67207413  0.27059920    -0.04000
C376        C  0.53174778  0.66821681  0.24375559    -0.09700
C377        C  0.52291179  0.70259528  0.22862045    -0.17400
C378        C  0.52349469  0.74120344  0.24008187     0.24800
C379        C  0.53384842  0.74538689  0.26657460    -0.19000
C380        C  0.54261838  0.71111319  0.28173891    -0.08000
C381        C  0.51119054  0.77648809  0.22537400    -0.14400
C382        C  0.49906836  0.80788259  0.21599884    -0.14100
C383        C  0.48313993  0.84732794  0.20941693     0.24700
C384        C  0.46539019  0.87049035  0.22929729    -0.19500
C385        C  0.45183535  0.90974104  0.22410365    -0.08000
C386        C  0.45557092  0.92652966  0.19884074    -0.04100
C387        C  0.47229006  0.90278193  0.17863792    -0.09400
C388        C  0.48624486  0.86330528  0.18396526    -0.17000
H389        H  0.53028208  0.63857521  0.23459951     0.11100
H390        H  0.51479725  0.69897769  0.20816353     0.10400
H391        H  0.53426491  0.77512386  0.27567514     0.10300
H392        H  0.54972394  0.71513335  0.30231373     0.10900
H393        H  0.46276383  0.85847972  0.24903097     0.10900
H394        H  0.43900243  0.92730430  0.24004590     0.10900
H395        H  0.47591950  0.91523601  0.15910818     0.11000
H396        H  0.50006069  0.84561979  0.16843402     0.09900
C397        C  0.56468748  0.42534756  0.30861529    -0.04000
C398        C  0.55316279  0.39975890  0.32945084    -0.09700
C399        C  0.54004263  0.35989379  0.32435439    -0.17400
C400        C  0.53871307  0.34549176  0.29846836     0.24800
C401        C  0.55149830  0.37043481  0.27790794    -0.19000
C402        C  0.56435522  0.40991874  0.28288948    -0.08000
C403        C  0.52304458  0.30592585  0.29205850    -0.14400
C404        C  0.51058093  0.27511218  0.28213493    -0.14100
C405        C  0.49752492  0.24094075  0.26668713     0.24700
C406        C  0.49123359  0.24578577  0.23968613    -0.19500
C407        C  0.48110955  0.21232197  0.22411249    -0.08000
C408        C  0.47731524  0.17350092  0.23538077    -0.04100
C409        C  0.48275976  0.16913247  0.26264789    -0.09400
C410        C  0.49282853  0.20264659  0.27817589    -0.17000
H411        H  0.55294705  0.41096625  0.34940988     0.11100
H412        H  0.53019373  0.34072181  0.34043391     0.10400
H413        H  0.55072108  0.35960933  0.25784147     0.10300
H414        H  0.57328420  0.42870563  0.26639963     0.10900
H415        H  0.49492851  0.27532780  0.23058193     0.10900
H416        H  0.47729983  0.21665507  0.20319740     0.10900
H417        H  0.48006881  0.13963907  0.27192913     0.11000
H418        H  0.49769484  0.19853478  0.29902523     0.09900
C419        C  0.93782562  0.47305974  0.19282387    -0.04000
C420        C  0.92891493  0.50492416  0.21033130    -0.09700
C421        C  0.88884306  0.51636171  0.21517889    -0.17400
C422        C  0.85687468  0.49636872  0.20259990     0.24800
C423        C  0.86527744  0.46552727  0.18442959    -0.19000
C424        C  0.90562752  0.45399092  0.17946808    -0.08000
C425        C  0.81583742  0.50552827  0.21043422    -0.14400
C426        C  0.78379203  0.51316447  0.22082345    -0.14100
C427        C  0.74867117  0.52093100  0.23692614     0.24700
C428        C  0.71702677  0.54588629  0.22809927    -0.19500
C429        C  0.68334522  0.55327234  0.24425582    -0.08000
C430        C  0.68111309  0.53587983  0.26945661    -0.04100
C431        C  0.71334047  0.51126570  0.27818181    -0.09400
C432        C  0.74677435  0.50386011  0.26202740    -0.17000
H433        H  0.95290517  0.52057380  0.22080651     0.11100
H434        H  0.88274644  0.54011926  0.22934831     0.10400
H435        H  0.84068713  0.44970140  0.17466644     0.10300
H436        H  0.91153753  0.42953188  0.16580461     0.10900
H437        H  0.71830691  0.55946918  0.20875658     0.10900
H438        H  0.65896131  0.57226503  0.23696507     0.10900
H439        H  0.71253831  0.49725031  0.29740027     0.11000
H440        H  0.77118197  0.48467543  0.26912224     0.09900
C441        C  0.18182219  0.47654277  0.22975781    -0.04000
C442        C  0.21399156  0.50114789  0.22082852    -0.09700
C443        C  0.24674768  0.51014385  0.23719447    -0.17400
C444        C  0.24805070  0.49471449  0.26273707     0.24800
C445        C  0.21654806  0.46963902  0.27177293    -0.19000
C446        C  0.18352857  0.46062939  0.25538194    -0.08000
C447        C  0.28255164  0.50415152  0.27902331    -0.14400
C448        C  0.31430575  0.51266427  0.28950520    -0.14100
C449        C  0.35521993  0.52170673  0.29769484     0.24700
C450        C  0.36473799  0.55850317  0.31012333    -0.19500
C451        C  0.40543892  0.56883260  0.31498692    -0.08000
C452        C  0.43692285  0.54260166  0.30715149    -0.04100
C453        C  0.42682131  0.50518341  0.29549234    -0.09400
C454        C  0.38634604  0.49488078  0.29082660    -0.17000
H455        H  0.21361018  0.51403544  0.20128009     0.11100
H456        H  0.27107488  0.52933841  0.22992165     0.10400
H457        H  0.21739300  0.45727324  0.29146140     0.10300
H458        H  0.15913961  0.44174550  0.26285854     0.10900
H459        H  0.34086571  0.57966188  0.31534639     0.10900
H460        H  0.41231906  0.59782517  0.32398541     0.10900
H461        H  0.45030217  0.48412225  0.28943196     0.11000
H462        H  0.37940507  0.46645332  0.28108825     0.09900
C463        C  0.54098826  0.53805432  0.40948887    -0.04000
C464        C  0.50632115  0.55579286  0.42093636    -0.09700
C465        C  0.49609803  0.54765093  0.44710275    -0.17400
C466        C  0.52021771  0.52155363  0.46222557     0.24800
C467        C  0.55467977  0.50364008  0.45096622    -0.19000
C468        C  0.56506431  0.51187464  0.42483708    -0.08000
C469        C  0.50947962  0.51294170  0.48918718    -0.14400
C470        C  0.50041383  0.50514042  0.51164469    -0.14100
C471        C  0.48959690  0.49475384  0.53833398     0.24700
C472        C  0.46375623  0.51994944  0.55291472    -0.19500
C473        C  0.45284531  0.50941202  0.57863179    -0.08000
C474        C  0.46754032  0.47338462  0.59013351    -0.04100
C475        C  0.49363697  0.44839089  0.57535497    -0.09400
C476        C  0.50457766  0.45903607  0.54970484    -0.17000
H477        H  0.48731956  0.57633260  0.40975741     0.11100
H478        H  0.46938210  0.56176237  0.45554352     0.10400
H479        H  0.57360699  0.48335404  0.46240602     0.10300
H480        H  0.59198365  0.49779740  0.41666823     0.10900
H481        H  0.45187904  0.54765096  0.54436973     0.10900
H482        H  0.43262101  0.52926915  0.58941448     0.10900
H483        H  0.50553882  0.42048963  0.58358423     0.11000
H484        H  0.52458368  0.43924627  0.53868190     0.09900
C485        C  0.32791027  0.47676778  0.72714610    -0.04000
C486        C  0.28947396  0.47918568  0.71515489    -0.09700
C487        C  0.25513971  0.48970119  0.72982225    -0.17400
C488        C  0.25863636  0.49791768  0.75666533     0.24800
C489        C  0.29661761  0.49498747  0.76887957    -0.19000
C490        C  0.33105419  0.48447363  0.75423615    -0.08000
C491        C  0.22303112  0.50916557  0.77146409    -0.14400
C492        C  0.19127380  0.51742308  0.78206177    -0.14100
C493        C  0.15079903  0.52488397  0.79176123     0.24700
C494        C  0.14100837  0.56129509  0.80454808    -0.19500
C495        C  0.10050484  0.56981071  0.81121230    -0.08000
C496        C  0.06943659  0.54208945  0.80490469    -0.04100
C497        C  0.07997290  0.50489485  0.79309756    -0.09400
C498        C  0.12027459  0.49644000  0.78658033    -0.17000
H499        H  0.28600679  0.47360740  0.69434345     0.11100
H500        H  0.22587570  0.49174458  0.72016524     0.10400
H501        H  0.29968249  0.50115048  0.78965486     0.10300
H502        H  0.36021823  0.48304213  0.76403597     0.10900
H503        H  0.16441801  0.58358793  0.80862587     0.10900
H504        H  0.09331604  0.59867470  0.82026425     0.10900
H505        H  0.05685999  0.48271990  0.78814694     0.11000
H506        H  0.12743789  0.46817957  0.77671836     0.09900
C507        C  0.57544716  0.45454437  0.69102226    -0.04000
C508        C  0.58997912  0.45904973  0.71680867    -0.09700
C509        C  0.62920455  0.47294867  0.72153724    -0.17400
C510        C  0.65492768  0.48268119  0.70068555     0.24800
C511        C  0.64130436  0.47772923  0.67478704    -0.19000
C512        C  0.60161700  0.46361600  0.66994515    -0.08000
C513        C  0.69490509  0.49778176  0.70686978    -0.14400
C514        C  0.72585517  0.50892826  0.71735025    -0.14100
C515        C  0.75941983  0.51934075  0.73423401     0.24700
C516        C  0.75706762  0.50988111  0.76097933    -0.19500
C517        C  0.78989912  0.51791031  0.77756943    -0.08000
C518        C  0.82566413  0.53563754  0.76764816    -0.04100
C519        C  0.82738760  0.54610388  0.74086591    -0.09400
C520        C  0.79446929  0.53791240  0.72425652    -0.17000
H521        H  0.57080412  0.45228615  0.73353480     0.11100
H522        H  0.63938989  0.47648253  0.74162289     0.10400
H523        H  0.66106331  0.48512944  0.65846002     0.10300
H524        H  0.59114817  0.46070097  0.64990308     0.10900
H525        H  0.73001887  0.49563764  0.76895368     0.10900
H526        H  0.78754109  0.50953686  0.79806180     0.10900
H527        H  0.85454033  0.55968156  0.73260774     0.11000
H528        H  0.79661223  0.54546831  0.70361813     0.09900
C529        C  0.46626485  0.33376306  0.73012343    -0.04000
C530        C  0.48622789  0.29933932  0.72003970    -0.09700
C531        C  0.49412627  0.26578636  0.73605580    -0.17400
C532        C  0.48233395  0.26597539  0.76243072     0.24800
C533        C  0.46191403  0.29982283  0.77262168    -0.19000
C534        C  0.45389257  0.33352542  0.75657042    -0.08000
C535        C  0.49105617  0.23099145  0.77858841    -0.14400
C536        C  0.49887354  0.19926917  0.78942105    -0.14100
C537        C  0.50737528  0.15852227  0.79836243     0.24700
C538        C  0.54257492  0.14961167  0.81280589    -0.19500
C539        C  0.55285950  0.10908489  0.81836116    -0.08000
C540        C  0.52815975  0.07712587  0.80929343    -0.04100
C541        C  0.49206320  0.08666200  0.79576890    -0.09400
C542        C  0.48185150  0.12692631  0.79035786    -0.17000
H543        H  0.49617919  0.29846034  0.69979779     0.11100
H544        H  0.50972130  0.23971684  0.72787282     0.10400
H545        H  0.45244469  0.30028544  0.79297044     0.10300
H546        H  0.43863400  0.35960871  0.76495473     0.10900
H547        H  0.56268933  0.17382856  0.81903360     0.10900
H548        H  0.58075209  0.10272655  0.82885414     0.10900
H549        H  0.47208551  0.06288939  0.78870348     0.11000
H550        H  0.45462346  0.13332613  0.77913557     0.09900
C551        C  0.45676933  0.57853900  0.69272409    -0.04000
C552        C  0.49078658  0.58929190  0.70797047    -0.09700
C553        C  0.49949252  0.62994124  0.71321929    -0.17400
C554        C  0.47450128  0.66065359  0.70333636     0.24800
C555        C  0.44129646  0.65050951  0.68738395    -0.19000
C556        C  0.43253588  0.60961017  0.68199877    -0.08000
C557        C  0.48160092  0.70188652  0.71165114    -0.14400
C558        C  0.48904595  0.73381618  0.72224350    -0.14100
C559        C  0.49853693  0.76836475  0.73848747     0.24700
C560        C  0.48801001  0.76744465  0.76507075    -0.19500
C561        C  0.49791370  0.79999937  0.78141544    -0.08000
C562        C  0.51865083  0.83409257  0.77143866    -0.04100
C563        C  0.52936694  0.83474582  0.74469453    -0.09400
C564        C  0.51936239  0.80203218  0.72832178    -0.17000
H565        H  0.51027433  0.56621462  0.71640693     0.11100
H566        H  0.52515594  0.63736397  0.72565317     0.10400
H567        H  0.42160113  0.67405703  0.67972385     0.10300
H568        H  0.40618161  0.60228518  0.67018987     0.10900
H569        H  0.47211621  0.74145962  0.77320592     0.10900
H570        H  0.48901774  0.79857352  0.80184962     0.10900
H571        H  0.54499474  0.86071379  0.73636891     0.11000
H572        H  0.52785255  0.80300264  0.70779865     0.09900
C573        C  0.97326229  0.97195964  0.41306237    -0.04000
C574        C  0.95720889  0.00749650  0.42439727    -0.09700
C575        C  0.96378101  0.01628306  0.45095188    -0.17400
C576        C  0.98660133  0.98983363  0.46665412     0.24800
C577        C  0.00276140  0.95440101  0.45554706    -0.19000
C578        C  0.99609166  0.94546402  0.42899767    -0.08000
C579        C  0.99361940  0.99928383  0.49403515    -0.14400
C580        C  0.99970434  0.00773827  0.51682158    -0.14100
C581        C  0.00755078  0.01809578  0.54396854     0.24700
C582        C  0.02864915  0.99101433  0.56020885    -0.19500
C583        C  0.03704860  0.00127243  0.58631781    -0.08000
C584        C  0.02445428  0.03886998  0.59669051    -0.04100
C585        C  0.00296897  0.06579470  0.58029455    -0.09400
C586        C  0.99462926  0.05547005  0.55415723    -0.17000
H587        H  0.93916500  0.02834599  0.41280614     0.11100
H588        H  0.95100663  0.04375083  0.45924231     0.10400
H589        H  0.02047052  0.93361527  0.46741788     0.10300
H590        H  0.00870757  0.91775324  0.42096894     0.10900
H591        H  0.03889698  0.96203150  0.55263642     0.10900
H592        H  0.05376643  0.97987057  0.59831295     0.10900
H593        H  0.99301007  0.09504681  0.58756399     0.11000
H594        H  0.97834095  0.07678898  0.54184102     0.09900
C595        C  0.35290965  0.35625590  0.64147371    -0.04000
C596        C  0.36136047  0.31435797  0.64275877    -0.09700
C597        C  0.33015025  0.28568218  0.64018131    -0.17400
C598        C  0.28995712  0.29830818  0.63631985     0.24800
C599        C  0.28130227  0.33991560  0.63457543    -0.19000
C600        C  0.31252419  0.36869618  0.63707483    -0.08000
C601        C  0.25756377  0.26859113  0.63521789    -0.14400
C602        C  0.23071647  0.24342124  0.63550877    -0.14100
C603        C  0.19867676  0.21342466  0.63749547     0.24700
C604        C  0.15831520  0.22575562  0.64106395    -0.19500
C605        C  0.12764357  0.19688085  0.64515227    -0.08000
C606        C  0.13683789  0.15510035  0.64567927    -0.04100
C607        C  0.17728091  0.14290322  0.64123196    -0.09400
C608        C  0.20795690  0.17187307  0.63725690    -0.17000
H609        H  0.39201624  0.30369314  0.64627377     0.11100
H610        H  0.33729764  0.25363155  0.64166856     0.10400
H611        H  0.25031809  0.35014908  0.63173280     0.10300
H612        H  0.30486402  0.40067011  0.63627760     0.10900
H613        H  0.15067001  0.25776878  0.64131057     0.10900
H614        H  0.09686095  0.20733736  0.64847726     0.10900
H615        H  0.18545794  0.11104163  0.64165192     0.11000
H616        H  0.23905904  0.16187449  0.63458982     0.09900
C617        C  0.16117408  0.03300529  0.73448234    -0.04000
C618        C  0.19996835  0.02948167  0.72310650    -0.09700
C619        C  0.23359046  0.01924417  0.73853719    -0.17400
C620        C  0.22895849  0.01259034  0.76552137     0.24800
C621        C  0.19064980  0.01686574  0.77710120    -0.19000
C622        C  0.15696668  0.02700747  0.76170791    -0.08000
C623        C  0.26333158  0.99976402  0.78093214    -0.14400
C624        C  0.29370844  0.98746579  0.79153450    -0.14100
C625        C  0.33228183  0.97145415  0.79995233     0.24700
C626        C  0.34946610  0.98228016  0.82415626    -0.19500
C627        C  0.38904737  0.96967402  0.83048973    -0.08000
C628        C  0.41166489  0.94672081  0.81243447    -0.04100
C629        C  0.39347951  0.93469739  0.78875651    -0.09400
C630        C  0.35406807  0.94683111  0.78263073    -0.17000
H631        H  0.20418475  0.03371350  0.70220984     0.11100
H632        H  0.26310298  0.01586770  0.72934419     0.10400
H633        H  0.18667730  0.01170990  0.79793872     0.10300
H634        H  0.12750678  0.02948381  0.77106493     0.10900
H635        H  0.33287385  0.00147784  0.83767937     0.10900
H636        H  0.40271240  0.97965277  0.84870043     0.10900
H637        H  0.41034674  0.91693575  0.77455979     0.11000
H638        H  0.34113250  0.93823560  0.76389041     0.09900
C639        C  0.91351751  0.06400091  0.69997643    -0.04000
C640        C  0.88588362  0.05626156  0.67952724    -0.09700
C641        C  0.84554268  0.04506752  0.68527605    -0.17400
C642        C  0.83257520  0.04186371  0.71145464     0.24800
C643        C  0.85959457  0.05107262  0.73170463    -0.19000
C644        C  0.89955978  0.06202058  0.72606851    -0.08000
C645        C  0.79244448  0.02752005  0.71830636    -0.14400
C646        C  0.76117721  0.01501261  0.72784176    -0.14100
C647        C  0.72637818  0.00062822  0.74246858     0.24700
C648        C  0.73108335  0.98918921  0.76876365    -0.19500
C649        C  0.69731486  0.97753605  0.78369521    -0.08000
C650        C  0.65817948  0.97716741  0.77255354    -0.04100
C651        C  0.65386166  0.98764457  0.74590192    -0.09400
C652        C  0.68773381  0.99936430  0.73099600    -0.17000
H653        H  0.89577419  0.05749375  0.65928664     0.11100
H654        H  0.82483170  0.03805947  0.66939581     0.10400
H655        H  0.85000645  0.04888517  0.75199709     0.10300
H656        H  0.91984992  0.06813634  0.74232829     0.10900
H657        H  0.76081231  0.99002651  0.77789489     0.10900
H658        H  0.70175128  0.96971680  0.80413376     0.10900
H659        H  0.62416765  0.98782096  0.73674321     0.11000
H660        H  0.68365023  0.00815463  0.71068577     0.09900
C661        C  0.94033793  0.42391308  0.81087507    -0.04000
C662        C  0.93641001  0.40484575  0.78636327    -0.09700
C663        C  0.95048195  0.36537417  0.78263442    -0.17400
C664        C  0.96891987  0.34431205  0.80325574     0.24800
C665        C  0.97151905  0.36232020  0.82811646    -0.19000
C666        C  0.95700289  0.40197721  0.83197489    -0.08000
C667        C  0.98679189  0.30531272  0.79777074    -0.14400
C668        C  0.00022258  0.27466481  0.78814263    -0.14100
C669        C  0.01248676  0.24133224  0.77166616     0.24700
C670        C  0.00788392  0.24513576  0.74449659    -0.19500
C671        C  0.01599641  0.21225894  0.72806541    -0.08000
C672        C  0.02903486  0.17498410  0.73855681    -0.04100
C673        C  0.03517795  0.17177456  0.76581840    -0.09400
C674        C  0.02675354  0.20478534  0.78231354    -0.17000
H675        H  0.92346129  0.42093167  0.76981227     0.11100
H676        H  0.94814751  0.35171790  0.76335658     0.10400
H677        H  0.98573793  0.34625633  0.84422950     0.10300
H678        H  0.96057957  0.41613575  0.85100008     0.10900
H679        H  0.99692645  0.27329362  0.73603167     0.10900
H680        H  0.01114024  0.21575025  0.70717686     0.10900
H681        H  0.04500868  0.14336257  0.77446130     0.11000
H682        H  0.03039220  0.20148416  0.80332136     0.09900
C683        C  0.03353050  0.93171466  0.69743038    -0.04000
C684        C  0.06026422  0.90130580  0.68855337    -0.09700
C685        C  0.05165690  0.86015074  0.69326830    -0.17400
C686        C  0.01610995  0.84898080  0.70667534     0.24800
C687        C  0.98882643  0.87904077  0.71475931    -0.19000
C688        C  0.99740533  0.91999859  0.71019759    -0.08000
C689        C  0.00841479  0.80725761  0.71394789    -0.14400
C690        C  0.00004312  0.77439940  0.72309588    -0.14100
C691        C  0.98857867  0.73838067  0.73752622     0.24700
C692        C  0.97359799  0.74254428  0.76306788    -0.19500
C693        C  0.96368498  0.70824904  0.77790830    -0.08000
C694        C  0.96854505  0.66901179  0.76745881    -0.04100
C695        C  0.98283238  0.66497315  0.74153057    -0.09400
C696        C  0.99285972  0.69949863  0.72667040    -0.17000
H697        H  0.08833411  0.90935874  0.67872849     0.11100
H698        H  0.07313891  0.83717639  0.68701595     0.10400
H699        H  0.96130583  0.87087124  0.72520545     0.10300
H700        H  0.97603361  0.94257378  0.71717184     0.10900
H701        H  0.97005994  0.77241718  0.77168823     0.10900
H702        H  0.95276674  0.71250039  0.79775999     0.10900
H703        H  0.98707822  0.63518260  0.73295689     0.11000
H704        H  0.00440008  0.69584565  0.70690964     0.09900
loop_ 
_geom_bond_atom_site_label_1 
_geom_bond_atom_site_label_2 
_geom_bond_distance 
_geom_bond_site_symmetry_2 
_ccdc_geom_bond_type 
O1           C16   1.261   1_545  A
O1           Al9   1.882       .  S
C2           O12   1.263       .  A
C2            O3   1.268       .  A
C2          C606   1.487       .  S
O3           Al5   1.928       .  S
O4            C6   1.256       .  A
O4           Al5   1.897       .  S
Al5          O13   1.895       .  S
Al5          O15   1.938   1_545  S
Al5          O14   1.787       .  S
C6           O19   1.257       .  A
C6          C617   1.481       .  S
O7           C17   1.262       .  A
O7           Al9   1.897       .  S
O8           C21   1.265       .  A
O8          Al18   1.926   1_655  S
Al9          O22   1.899   1_455  S
Al9          O19   1.901       .  S
Al9          O14   1.786       .  S
O10          C17   1.267       .  A
O10         Al18   1.924       .  S
O11          C20   1.261       .  A
O11         Al18   1.919       .  S
O12         Al18   1.894       .  S
O13          C20   1.257       .  A
O14         Al18   1.789       .  S
O15          C16   1.269       .  A
C16         C683   1.483       .  S
C17         C672   1.480       .  S
C20         C584   1.489       .  S
C21          O22   1.260       .  A
C21         C639   1.483       .  S
O23          C38   1.260       .  A
O23         Al31   1.876       .  S
C24          O34   1.265       .  A
C24          O25   1.271       .  A
C24         C595   1.486       .  S
O25         Al27   1.932       .  S
O26          C28   1.255       .  A
O26         Al27   1.890       .  S
Al27         O35   1.899       .  S
Al27         O37   1.933       .  S
Al27         O36   1.787       .  S
C28          O41   1.257       .  A
C28         C485   1.482       .  S
O29          C39   1.262       .  A
O29         Al31   1.904       .  S
O30          C43   1.266       .  A
O30         Al40   1.921       .  S
Al31         O44   1.904       .  S
Al31         O41   1.903       .  S
Al31         O36   1.784       .  S
O32          C39   1.264       .  A
O32         Al40   1.923       .  S
O33          C42   1.258       .  A
O33         Al40   1.910       .  S
O34         Al40   1.893       .  S
O35          C42   1.256       .  A
O36         Al40   1.789       .  S
O37          C38   1.268       .  A
C38         C551   1.482       .  S
C39         C529   1.484       .  S
C42         C474   1.487       .  S
C43          O44   1.264       .  A
C43         C507   1.481       .  S
O45          C60   1.260       .  A
O45         Al53   1.875       .  S
C46          O56   1.265       .  A
C46          O47   1.269       .  A
C46         C364   1.484       .  S
O47         Al49   1.926       .  S
O48          C50   1.256       .  A
O48         Al49   1.892       .  S
Al49         O57   1.896       .  S
Al49         O59   1.936       .  S
Al49         O58   1.784       .  S
C50          O63   1.257       .  A
C50         C375   1.481       .  S
O51          C61   1.262       .  A
O51         Al53   1.899       .  S
O52          C65   1.266       .  A
O52         Al62   1.920       .  S
Al53         O66   1.901       .  S
Al53         O63   1.903       .  S
Al53         O58   1.783       .  S
O54          C61   1.265       .  A
O54         Al62   1.923       .  S
O55          C64   1.259       .  A
O55         Al62   1.914       .  S
O56         Al62   1.894       .  S
O57          C64   1.257       .  A
O58         Al62   1.786       .  S
O59          C60   1.269       .  A
C60         C452   1.480       .  S
C61         C430   1.481       .  S
C64         C463   1.486       .  S
C65          O66   1.262       .  A
C65         C397   1.478       .  S
O67          C82   1.267       .  A
O67         Al75   1.917   1_455  S
C68          O78   1.272       .  A
C68          O69   1.265       .  A
C68         C353   1.484       .  S
O69         Al71   1.887       .  S
O70          C72   1.264       .  A
O70         Al71   1.928       .  S
Al71         O79   1.919       .  S
Al71         O81   1.913   1_655  S
Al71         O80   1.787       .  S
C72          O85   1.260       .  A
C72         C298   1.485       .  S
O73          C83   1.259       .  A
O73         Al75   1.912       .  S
O74          C87   1.269       .  A
O74         Al84   1.945   1_545  S
Al75         O88   1.869   1_565  S
Al75         O85   1.901       .  S
Al75         O80   1.784       .  S
O76          C83   1.254       .  A
O76         Al84   1.881       .  S
O77          C86   1.257       .  A
O77         Al84   1.900       .  S
O78         Al84   1.939       .  S
O79          C86   1.259       .  A
O80         Al84   1.786       .  S
O81          C82   1.267       .  A
C82         C309   1.480       .  S
C83         C331   1.481       .  S
C86         C573   1.489       .  S
C87          O88   1.258       .  A
C87         C276   1.485       .  S
O89         C104   1.263       .  A
O89         Al97   1.914       .  S
C90         O100   1.270       .  A
C90          O91   1.262       .  A
C90         C243   1.488       .  S
O91         Al93   1.887       .  S
O92          C94   1.268       .  A
O92         Al93   1.934       .  S
Al93        O101   1.923       .  S
Al93        O103   1.911       .  S
Al93        O102   1.785       .  S
C94         O107   1.262       .  A
C94         C518   1.482       .  S
O95         C105   1.260       .  A
O95         Al97   1.921       .  S
O96         C109   1.270       .  A
O96        Al106   1.943   1_455  S
Al97        O110   1.875       .  S
Al97        O107   1.893       .  S
Al97        O102   1.785       .  S
O98         C105   1.256       .  A
O98        Al106   1.888       .  S
O99         C108   1.257       .  A
O99        Al106   1.897       .  S
O100       Al106   1.938       .  S
O101        C108   1.261       .  A
O102       Al106   1.781       .  S
O103        C104   1.263       .  A
C104        C661   1.476       .  S
C105        C694   1.484       .  S
C108        C221   1.491       .  S
C109        O110   1.260   1_455  A
C109        C496   1.481       .  S
O111        C126   1.259       .  A
O111       Al119   1.872   1_545  S
C112        O122   1.264       .  A
C112        O113   1.272       .  A
C112        C254   1.488       .  S
O113       Al115   1.941       .  S
O114        C116   1.256       .  A
O114       Al115   1.894       .  S
Al115       O123   1.901       .  S
Al115       O125   1.942   1_565  S
Al115       O124   1.785       .  S
C116        O129   1.258       .  A
C116        C650   1.485       .  S
O117        C127   1.262       .  A
O117       Al119   1.900       .  S
O118        C131   1.266       .  A
O118       Al128   1.919       .  S
Al119       O132   1.909       .  S
Al119       O129   1.911       .  S
Al119       O124   1.785       .  S
O120        C127   1.265       .  A
O120       Al128   1.927       .  S
O121        C130   1.260       .  A
O121       Al128   1.923       .  S
O122       Al128   1.889       .  S
O123        C130   1.256       .  A
O124       Al128   1.787       .  S
O125        C126   1.270       .  A
C126        C540   1.484       .  S
C127        C562   1.482       .  S
C130        C210   1.492       .  S
C131        O132   1.263       .  A
C131        C628   1.472       .  S
O133        C148   1.259   1_455  A
O133       Al141   1.870       .  S
C134        O144   1.266       .  A
C134        O135   1.273       .  A
C134        C177   1.487       .  S
O135       Al137   1.936       .  S
O136        C138   1.255       .  A
O136       Al137   1.893       .  S
Al137       O145   1.897       .  S
Al137       O147   1.933   1_455  S
Al137       O146   1.789       .  S
C138        O151   1.256       .  A
C138        C265   1.485       .  S
O139        C149   1.259       .  A
O139       Al141   1.900       .  S
O140        C153   1.268       .  A
O140       Al150   1.923       .  S
Al141       O154   1.908       .  S
Al141       O151   1.902       .  S
Al141       O146   1.787       .  S
O142        C149   1.263       .  A
O142       Al150   1.919       .  S
O143        C152   1.257       .  A
O143       Al150   1.915       .  S
O144       Al150   1.891       .  S
O145        C152   1.254       .  A
O146       Al150   1.793       .  S
O147        C148   1.268       .  A
C148        C419   1.482       .  S
C149        C441   1.481       .  S
C152        C232   1.490       .  S
C153        O154   1.265       .  A
C153        C287   1.485       .  S
O155        C170   1.259       .  A
O155       Al163   1.868       .  S
C156        O166   1.265       .  A
C156        O157   1.270       .  A
C156        C188   1.487       .  S
O157       Al159   1.931       .  S
O158        C160   1.257       .  A
O158       Al159   1.899       .  S
Al159       O167   1.908       .  S
Al159       O169   1.940       .  S
Al159       O168   1.789       .  S
C160        O173   1.256       .  A
C160        C408   1.480       .  S
O161        C171   1.260       .  A
O161       Al163   1.895       .  S
O162        C175   1.265       .  A
O162       Al172   1.921   1_565  S
Al163       O176   1.903   1_545  S
Al163       O173   1.895       .  S
Al163       O168   1.785       .  S
O164        C171   1.267       .  A
O164       Al172   1.932       .  S
O165        C174   1.260       .  A
O165       Al172   1.918       .  S
O166       Al172   1.895       .  S
O167        C174   1.259       .  A
O168       Al172   1.785       .  S
O169        C170   1.269       .  A
C170        C342   1.478       .  S
C171        C320   1.482       .  S
C174        C199   1.493       .  S
C175        O176   1.261       .  A
C175        C386   1.476       .  S
C177        C178   1.408       .  A
C177        C182   1.409       .  A
C178        C179   1.403       .  A
C178        H191   1.083       .  S
C179        C180   1.402       .  A
C179        H192   1.083       .  S
C180        C181   1.400       .  A
C180        C183   1.447       .  S
C181        C182   1.400       .  A
C181        H193   1.083       .  S
C182        H194   1.083       .  S
C183        C184   1.210       .  T
C184        C185   1.447       .  S
C185        C186   1.401       .  A
C185        C190   1.400       .  A
C186        C187   1.402       .  A
C186        H195   1.083       .  S
C187        C188   1.408       .  A
C187        H196   1.083       .  S
C188        C189   1.409       .  A
C189        C190   1.400       .  A
C189        H197   1.083       .  S
C190        H198   1.083       .  S
C199        C200   1.409       .  A
C199        C204   1.409       .  A
C200        C201   1.403       .  A
C200        H213   1.083   1_545  S
C201        C202   1.401       .  A
C201        H214   1.083   1_545  S
C202        C203   1.403       .  A
C202        C205   1.454       .  S
C203        C204   1.405       .  A
C203        H215   1.083       .  S
C204        H216   1.083       .  S
C205        C206   1.214   1_554  T
C206        C207   1.454   1_545  S
C207        C208   1.402   1_565  A
C207        C212   1.402       .  A
C208        C209   1.404       .  A
C208        H217   1.083       .  S
C209        C210   1.409   1_545  A
C209        H218   1.083       .  S
C210        C211   1.409       .  A
C211        C212   1.403       .  A
C211        H219   1.083       .  S
C212        H220   1.083       .  S
C221        C222   1.408       .  A
C221        C226   1.409   1_655  A
C222        C223   1.403       .  A
C222        H235   1.083       .  S
C223        C224   1.402       .  A
C223        H236   1.083       .  S
C224        C225   1.401   1_655  A
C224        C227   1.451   1_655  S
C225        C226   1.403       .  A
C225        H237   1.083       .  S
C226        H238   1.083       .  S
C227        C228   1.213   1_556  T
C228        C229   1.451       .  S
C229        C230   1.402       .  A
C229        C234   1.401   1_455  A
C230        C231   1.404       .  A
C230        H239   1.083       .  S
C231        C232   1.409       .  A
C231        H240   1.083       .  S
C232        C233   1.409       .  A
C233        C234   1.402   1_455  A
C233        H241   1.083   1_455  S
C234        H242   1.083       .  S
C243        C244   1.409       .  A
C243        C248   1.408       .  A
C244        C245   1.399       .  A
C244        H257   1.083       .  S
C245        C246   1.400       .  A
C245        H258   1.084       .  S
C246        C247   1.402       .  A
C246        C249   1.448       .  S
C247        C248   1.404       .  A
C247        H259   1.083       .  S
C248        H260   1.083       .  S
C249        C250   1.211       .  T
C250        C251   1.448       .  S
C251        C252   1.402       .  A
C251        C256   1.400       .  A
C252        C253   1.403       .  A
C252        H261   1.083       .  S
C253        C254   1.408       .  A
C253        H262   1.083       .  S
C254        C255   1.409       .  A
C255        C256   1.400       .  A
C255        H263   1.083       .  S
C256        H264   1.084       .  S
C265        C266   1.409       .  A
C265        C270   1.407       .  A
C266        C267   1.402       .  A
C266        H279   1.083       .  S
C267        C268   1.401       .  A
C267        H280   1.083       .  S
C268        C269   1.401       .  A
C268        C271   1.445       .  S
C269        C270   1.400       .  A
C269        H281   1.083       .  S
C270        H282   1.083       .  S
C271        C272   1.209   1_455  T
C272        C273   1.445       .  S
C273        C274   1.396   1_655  A
C273        C278   1.405       .  A
C274        C275   1.394       .  A
C274        H283   1.084       .  S
C275        C276   1.409   1_455  A
C275        H284   1.083       .  S
C276        C277   1.407       .  A
C277        C278   1.407       .  A
C277        H285   1.083       .  S
C278        H286   1.083       .  S
C287        C288   1.408       .  A
C287        C292   1.408       .  A
C288        C289   1.408       .  A
C288        H301   1.083       .  S
C289        C290   1.405       .  A
C289        H302   1.083       .  S
C290        C291   1.396       .  A
C290        C293   1.444       .  S
C291        C292   1.391       .  A
C291        H303   1.084       .  S
C292        H304   1.083       .  S
C293        C294   1.209       .  T
C294        C295   1.445       .  S
C295        C296   1.400       .  A
C295        C300   1.401   1_455  A
C296        C297   1.397   1_455  A
C296        H305   1.084       .  S
C297        C298   1.406       .  A
C297        H306   1.083   1_655  S
C298        C299   1.409       .  A
C299        C300   1.403       .  A
C299        H307   1.083       .  S
C300        H308   1.083       .  S
C309        C310   1.408       .  A
C309        C314   1.406       .  A
C310        C311   1.406       .  A
C310        H323   1.083       .  S
C311        C312   1.403       .  A
C311        H324   1.083       .  S
C312        C313   1.397       .  A
C312        C315   1.442       .  S
C313        C314   1.392       .  A
C313        H325   1.084       .  S
C314        H326   1.083       .  S
C315        C316   1.207   1_565  T
C316        C317   1.442       .  S
C317        C318   1.400       .  A
C317        C322   1.401       .  A
C318        C319   1.396       .  A
C318        H327   1.084   1_545  S
C319        C320   1.405       .  A
C319        H328   1.083       .  S
C320        C321   1.410       .  A
C321        C322   1.403       .  A
C321        H329   1.083       .  S
C322        H330   1.083       .  S
C331        C332   1.407       .  A
C331        C336   1.408       .  A
C332        C333   1.400       .  A
C332        H345   1.083       .  S
C333        C334   1.400   1_565  A
C333        H346   1.083   1_565  S
C334        C335   1.399   1_545  A
C334        C337   1.440       .  S
C335        C336   1.396       .  A
C335        H347   1.084       .  S
C336        H348   1.083       .  S
C337        C338   1.206       .  T
C338        C339   1.439       .  S
C339        C340   1.397       .  A
C339        C344   1.403       .  A
C340        C341   1.393       .  A
C340        H349   1.084   1_545  S
C341        C342   1.407       .  A
C341        H350   1.083   1_545  S
C342        C343   1.406       .  A
C343        C344   1.403       .  A
C343        H351   1.083       .  S
C344        H352   1.083       .  S
C353        C354   1.408       .  A
C353        C358   1.408       .  A
C354        C355   1.397       .  A
C354        H367   1.083       .  S
C355        C356   1.399       .  A
C355        H368   1.084       .  S
C356        C357   1.402       .  A
C356        C359   1.444       .  S
C357        C358   1.403       .  A
C357        H369   1.083       .  S
C358        H370   1.083       .  S
C359        C360   1.208       .  T
C360        C361   1.444       .  S
C361        C362   1.400       .  A
C361        C366   1.400       .  A
C362        C363   1.401       .  A
C362        H371   1.083       .  S
C363        C364   1.408       .  A
C363        H372   1.083       .  S
C364        C365   1.408       .  A
C365        C366   1.399       .  A
C365        H373   1.083       .  S
C366        H374   1.084       .  S
C375        C376   1.409       .  A
C375        C380   1.406       .  A
C376        C377   1.400       .  A
C376        H389   1.083       .  S
C377        C378   1.399       .  A
C377        H390   1.083       .  S
C378        C379   1.400       .  A
C378        C381   1.440       .  S
C379        C380   1.397       .  A
C379        H391   1.084       .  S
C380        H392   1.083       .  S
C381        C382   1.206       .  T
C382        C383   1.440       .  S
C383        C384   1.397       .  A
C383        C388   1.403       .  A
C384        C385   1.392       .  A
C384        H393   1.084       .  S
C385        C386   1.406       .  A
C385        H394   1.083       .  S
C386        C387   1.406       .  A
C387        C388   1.405       .  A
C387        H395   1.083       .  S
C388        H396   1.083       .  S
C397        C398   1.407       .  A
C397        C402   1.407       .  A
C398        C399   1.405       .  A
C398        H411   1.083       .  S
C399        C400   1.403       .  A
C399        H412   1.083       .  S
C400        C401   1.395       .  A
C400        C403   1.438       .  S
C401        C402   1.390       .  A
C401        H413   1.084       .  S
C402        H414   1.083       .  S
C403        C404   1.205       .  T
C404        C405   1.439       .  S
C405        C406   1.401       .  A
C405        C410   1.398       .  A
C406        C407   1.398       .  A
C406        H415   1.084       .  S
C407        C408   1.406       .  A
C407        H416   1.083       .  S
C408        C409   1.409       .  A
C409        C410   1.398       .  A
C409        H417   1.083       .  S
C410        H418   1.083       .  S
C419        C420   1.409       .  A
C419        C424   1.407       .  A
C420        C421   1.393       .  A
C420        H433   1.083       .  S
C421        C422   1.396       .  A
C421        H434   1.084       .  S
C422        C423   1.402       .  A
C422        C425   1.440       .  S
C423        C424   1.404       .  A
C423        H435   1.083       .  S
C424        H436   1.083       .  S
C425        C426   1.206       .  T
C426        C427   1.440       .  S
C427        C428   1.401       .  A
C427        C432   1.398       .  A
C428        C429   1.402       .  A
C428        H437   1.083       .  S
C429        C430   1.408       .  A
C429        H438   1.083       .  S
C430        C431   1.407       .  A
C431        C432   1.395       .  A
C431        H439   1.083       .  S
C432        H440   1.084       .  S
C441        C442   1.407       .  A
C441        C446   1.408       .  A
C442        C443   1.395       .  A
C442        H455   1.083       .  S
C443        C444   1.398       .  A
C443        H456   1.084       .  S
C444        C445   1.401       .  A
C444        C447   1.440       .  S
C445        C446   1.402       .  A
C445        H457   1.083       .  S
C446        H458   1.083       .  S
C447        C448   1.206       .  T
C448        C449   1.440       .  S
C449        C450   1.402       .  A
C449        C454   1.397       .  A
C450        C451   1.403       .  A
C450        H459   1.083       .  S
C451        C452   1.407       .  A
C451        H460   1.083       .  S
C452        C453   1.407       .  A
C453        C454   1.394       .  A
C453        H461   1.083       .  S
C454        H462   1.084       .  S
C463        C464   1.408       .  A
C463        C468   1.408       .  A
C464        C465   1.401       .  A
C464        H477   1.083       .  S
C465        C466   1.401       .  A
C465        H478   1.083       .  S
C466        C467   1.401       .  A
C466        C469   1.447       .  S
C467        C468   1.401       .  A
C467        H479   1.083       .  S
C468        H480   1.083       .  S
C469        C470   1.210       .  T
C470        C471   1.447       .  S
C471        C472   1.402       .  A
C471        C476   1.400       .  A
C472        C473   1.402       .  A
C472        H481   1.083       .  S
C473        C474   1.408       .  A
C473        H482   1.083       .  S
C474        C475   1.408       .  A
C475        C476   1.400       .  A
C475        H483   1.083       .  S
C476        H484   1.084       .  S
C485        C486   1.407       .  A
C485        C490   1.408       .  A
C486        C487   1.398       .  A
C486        H499   1.083       .  S
C487        C488   1.400       .  A
C487        H500   1.084       .  S
C488        C489   1.400       .  A
C488        C491   1.441       .  S
C489        C490   1.400       .  A
C489        H501   1.083       .  S
C490        H502   1.083       .  S
C491        C492   1.207       .  T
C492        C493   1.441       .  S
C493        C494   1.402       .  A
C493        C498   1.397       .  A
C494        C495   1.403       .  A
C494        H503   1.083       .  S
C495        C496   1.407       .  A
C495        H504   1.083       .  S
C496        C497   1.408       .  A
C497        C498   1.395       .  A
C497        H505   1.083       .  S
C498        H506   1.084       .  S
C507        C508   1.407       .  A
C507        C512   1.408       .  A
C508        C509   1.390       .  A
C508        H521   1.083       .  S
C509        C510   1.395       .  A
C509        H522   1.084       .  S
C510        C511   1.404       .  A
C510        C513   1.440       .  S
C511        C512   1.407       .  A
C511        H523   1.083       .  S
C512        H524   1.083       .  S
C513        C514   1.207       .  T
C514        C515   1.442       .  S
C515        C516   1.400       .  A
C515        C520   1.399       .  A
C516        C517   1.397       .  A
C516        H525   1.084       .  S
C517        C518   1.406       .  A
C517        H526   1.083       .  S
C518        C519   1.409       .  A
C519        C520   1.401       .  A
C519        H527   1.083       .  S
C520        H528   1.083       .  S
C529        C530   1.407       .  A
C529        C534   1.408       .  A
C530        C531   1.397       .  A
C530        H543   1.083       .  S
C531        C532   1.399       .  A
C531        H544   1.084       .  S
C532        C533   1.401       .  A
C532        C535   1.444       .  S
C533        C534   1.403       .  A
C533        H545   1.083       .  S
C534        H546   1.083       .  S
C535        C536   1.209       .  T
C536        C537   1.444       .  S
C537        C538   1.404       .  A
C537        C542   1.397       .  A
C538        C539   1.405       .  A
C538        H547   1.083       .  S
C539        C540   1.407       .  A
C539        H548   1.083       .  S
C540        C541   1.409       .  A
C541        C542   1.395       .  A
C541        H549   1.083       .  S
C542        H550   1.084       .  S
C551        C552   1.408       .  A
C551        C556   1.407       .  A
C552        C553   1.394       .  A
C552        H565   1.083       .  S
C553        C554   1.397       .  A
C553        H566   1.084       .  S
C554        C555   1.402       .  A
C554        C557   1.441       .  S
C555        C556   1.404       .  A
C555        H567   1.083       .  S
C556        H568   1.083       .  S
C557        C558   1.207       .  T
C558        C559   1.441       .  S
C559        C560   1.399       .  A
C559        C564   1.401       .  A
C560        C561   1.396       .  A
C560        H569   1.084       .  S
C561        C562   1.407       .  A
C561        H570   1.083       .  S
C562        C563   1.408       .  A
C563        C564   1.402       .  A
C563        H571   1.083       .  S
C564        H572   1.083       .  S
C573        C574   1.408   1_565  A
C573        C578   1.409       .  A
C574        C575   1.402       .  A
C574        H587   1.083       .  S
C575        C576   1.401   1_545  A
C575        H588   1.083       .  S
C576        C577   1.402   1_655  A
C576        C579   1.449       .  S
C577        C578   1.403   1_455  A
C577        H589   1.083       .  S
C578        H590   1.083   1_655  S
C579        C580   1.212   1_565  T
C580        C581   1.449   1_655  S
C581        C582   1.401   1_545  A
C581        C586   1.402   1_455  A
C582        C583   1.401   1_565  A
C582        H591   1.083       .  S
C583        C584   1.409       .  A
C583        H592   1.083   1_545  S
C584        C585   1.408       .  A
C585        C586   1.403   1_455  A
C585        H593   1.083   1_455  S
C586        H594   1.083       .  S
C595        C596   1.408       .  A
C595        C600   1.408       .  A
C596        C597   1.400       .  A
C596        H609   1.083       .  S
C597        C598   1.400       .  A
C597        H610   1.083       .  S
C598        C599   1.402       .  A
C598        C601   1.447       .  S
C599        C600   1.402       .  A
C599        H611   1.083       .  S
C600        H612   1.083       .  S
C601        C602   1.210       .  T
C602        C603   1.447       .  S
C603        C604   1.400       .  A
C603        C608   1.401       .  A
C604        C605   1.400       .  A
C604        H613   1.083       .  S
C605        C606   1.408       .  A
C605        H614   1.083       .  S
C606        C607   1.408       .  A
C607        C608   1.402       .  A
C607        H615   1.083       .  S
C608        H616   1.083       .  S
C617        C618   1.406       .  A
C617        C622   1.409       .  A
C618        C619   1.399       .  A
C618        H631   1.083       .  S
C619        C620   1.401       .  A
C619        H632   1.083       .  S
C620        C621   1.398       .  A
C620        C623   1.441   1_545  S
C621        C622   1.399       .  A
C621        H633   1.084       .  S
C622        H634   1.083       .  S
C623        C624   1.206       .  T
C624        C625   1.440       .  S
C625        C626   1.404       .  A
C625        C630   1.397       .  A
C626        C627   1.404       .  A
C626        H635   1.083   1_565  S
C627        C628   1.405       .  A
C627        H636   1.083       .  S
C628        C629   1.405       .  A
C629        C630   1.392       .  A
C629        H637   1.084       .  S
C630        H638   1.084       .  S
C639        C640   1.407       .  A
C639        C644   1.408       .  A
C640        C641   1.407       .  A
C640        H653   1.083       .  S
C641        C642   1.405       .  A
C641        H654   1.083       .  S
C642        C643   1.396       .  A
C642        C645   1.444       .  S
C643        C644   1.392       .  A
C643        H655   1.084       .  S
C644        H656   1.083       .  S
C645        C646   1.209       .  T
C646        C647   1.445       .  S
C647        C648   1.401   1_545  A
C647        C652   1.400   1_545  A
C648        C649   1.399       .  A
C648        H657   1.084       .  S
C649        C650   1.407       .  A
C649        H658   1.083       .  S
C650        C651   1.409       .  A
C651        C652   1.402       .  A
C651        H659   1.083       .  S
C652        H660   1.083   1_565  S
C661        C662   1.405       .  A
C661        C666   1.407       .  A
C662        C663   1.393       .  A
C662        H675   1.083       .  S
C663        C664   1.398       .  A
C663        H676   1.084       .  S
C664        C665   1.402       .  A
C664        C667   1.440       .  S
C665        C666   1.404       .  A
C665        H677   1.083       .  S
C666        H678   1.083       .  S
C667        C668   1.206   1_655  T
C668        C669   1.440       .  S
C669        C670   1.399       .  A
C669        C674   1.401       .  A
C670        C671   1.395       .  A
C670        H679   1.084   1_455  S
C671        C672   1.405       .  A
C671        H680   1.083       .  S
C672        C673   1.409       .  A
C673        C674   1.402       .  A
C673        H681   1.083       .  S
C674        H682   1.083       .  S
C683        C684   1.408       .  A
C683        C688   1.408   1_455  A
C684        C685   1.404       .  A
C684        H697   1.083       .  S
C685        C686   1.402       .  A
C685        H698   1.083       .  S
C686        C687   1.399   1_455  A
C686        C689   1.444       .  S
C687        C688   1.396       .  A
C687        H699   1.083       .  S
C688        H700   1.083       .  S
C689        C690   1.209       .  T
C690        C691   1.444   1_455  S
C691        C692   1.399       .  A
C691        C696   1.402       .  A
C692        C693   1.396       .  A
C692        H701   1.084       .  S
C693        C694   1.407       .  A
C693        H702   1.083       .  S
C694        C695   1.409       .  A
C695        C696   1.404       .  A
C695        H703   1.083       .  S
C696        H704   1.083   1_655  S
