geometry optimzed in LAMMPS
_audit_creation_date              2020-12-01 
_audit_creation_method            'lammps2cif' 
_symmetry_space_group_name_H-M    'P1' 
_symmetry_Int_Tables_number       1 
_symmetry_cell_setting            triclinic 
loop_ 
_symmetry_equiv_pos_as_xyz 
  x,y,z 
_cell_length_a                    42.57558125 
_cell_length_b                    42.5794362175411 
_cell_length_c                    46.88793563676553 
_cell_angle_alpha                 90.002138587239 
_cell_angle_beta                  90.00619523076338 
_cell_angle_gamma                 90.0027075238247 
loop_ 
_atom_site_label 
_atom_site_type_symbol 
_atom_site_fract_x 
_atom_site_fract_y 
_atom_site_fract_z 
_atom_site_charge 
Fe1        Fe  0.37510691  0.69759644  0.12222939     1.65800
Fe2        Fe  0.43304213  0.66502288  0.16335077     1.73200
Fe3        Fe  0.44892707  0.73082585  0.12349715     1.54400
O4          O  0.43660045  0.72462972  0.08109069    -0.80100
O5          O  0.45572305  0.69678921  0.18929386    -0.78400
O6          O  0.38953836  0.70109710  0.08022969    -0.82600
O7          O  0.36970033  0.74552089  0.12531459    -0.77500
O8          O  0.48561503  0.69927391  0.11721259    -0.79200
O9          O  0.39388658  0.67055083  0.18864951    -0.82000
C10         C  0.38728592  0.76928466  0.12774196     0.98800
C11         C  0.41349527  0.71255736  0.06787841     1.06200
O12         O  0.41906963  0.69781193  0.13630567    -1.11000
O13         O  0.41223880  0.62836126  0.14148643    -0.73400
O14         O  0.37272132  0.64937963  0.11701137    -0.76900
O15         O  0.41700518  0.76746782  0.12816756    -0.77600
C16         C  0.38832096  0.62590654  0.12560565     0.97700
O17         O  0.35650274  0.69422548  0.16297608    -0.75500
O18         O  0.47409039  0.65576353  0.14158799    -0.80700
C19         C  0.46634357  0.72446962  0.18714426     1.00300
C20         C  0.49205005  0.67165074  0.12560100     1.06200
O21         O  0.46471454  0.74057032  0.16442105    -0.76400
C22         C  0.36672984  0.68241424  0.18603794     1.04500
Fe23       Fe  0.37509238  0.69729567  0.87064387     1.65800
Fe24       Fe  0.43309862  0.66472471  0.82960808     1.73200
Fe25       Fe  0.44887736  0.73058540  0.86942219     1.54400
O26         O  0.41695210  0.76718998  0.86458866    -0.80100
O27         O  0.47415130  0.65556153  0.85140512    -0.78400
O28         O  0.36966363  0.74522771  0.86756917    -0.82600
O29         O  0.38947894  0.70079351  0.91266157    -0.77500
O30         O  0.46478432  0.74023715  0.82852808    -0.79200
O31         O  0.41235128  0.62807638  0.85150754    -0.82000
C32         C  0.41338008  0.71236930  0.92501894     0.98800
C33         C  0.38723394  0.76899472  0.86505995     1.06200
O34         O  0.41906739  0.69753175  0.85661009    -1.11000
O35         O  0.39394122  0.67015614  0.80428444    -0.73400
O36         O  0.35654638  0.69392025  0.82987366    -0.76900
O37         O  0.43644729  0.72450765  0.91181040    -0.77600
C38         C  0.36679194  0.68205084  0.80684416     0.97700
O39         O  0.37272598  0.64907672  0.87584527    -0.75500
O40         O  0.45574024  0.69647705  0.80363878    -0.80700
C41         C  0.49203532  0.67144915  0.86746665     1.00300
C42         C  0.46640120  0.72413915  0.80580415     1.06200
O43         O  0.48554211  0.69905393  0.87586628    -0.76400
C44         C  0.38839035  0.62561497  0.86732519     1.04500
Fe45       Fe  0.70689534  0.62436582  0.12240303     1.65800
Fe46       Fe  0.67429937  0.56647350  0.16355454     1.73200
Fe47       Fe  0.74007701  0.55054326  0.12367909     1.54400
O48         O  0.73390883  0.56288906  0.08127525    -0.80100
O49         O  0.70608440  0.54385705  0.18952720    -0.78400
O50         O  0.71031240  0.60991276  0.08040381    -0.82600
O51         O  0.75483589  0.62973739  0.12542335    -0.77500
O52         O  0.70849486  0.51389100  0.11736698    -0.79200
O53         O  0.67981847  0.60567106  0.18880814    -0.82000
C54         C  0.77858426  0.61214089  0.12790451     0.98800
C55         C  0.72180385  0.58596908  0.06805753     1.06200
O56         O  0.70708526  0.58041475  0.13649169    -1.11000
O57         O  0.63763625  0.58722623  0.14165095    -0.73400
O58         O  0.65866891  0.62678942  0.11725175    -0.76900
O59         O  0.77674098  0.58242860  0.12838615    -0.77600
C60         C  0.63519036  0.61117018  0.12580643     0.97700
O61         O  0.70361729  0.64298044  0.16314662    -0.75500
O62         O  0.66504533  0.52537876  0.14184781    -0.80700
C63         C  0.73374441  0.53318626  0.18734654     1.00300
C64         C  0.68089648  0.50743747  0.12581293     1.06200
O65         O  0.74980034  0.53473873  0.16459449    -0.76400
C66         C  0.69175910  0.63279360  0.18619995     1.04500
Fe67       Fe  0.70685659  0.62428242  0.87082189     1.65800
Fe68       Fe  0.67423317  0.56626345  0.82982729     1.73200
Fe69       Fe  0.74012960  0.55050259  0.86959999     1.54400
O70         O  0.77673382  0.58241451  0.86476081    -0.80100
O71         O  0.66510956  0.52518930  0.85159830    -0.78400
O72         O  0.75479909  0.62970320  0.86777054    -0.82600
O73         O  0.71031518  0.60989924  0.91283762    -0.77500
O74         O  0.74976765  0.53462319  0.82869113    -0.79200
O75         O  0.63759534  0.58698361  0.85177517    -0.82000
C76         C  0.72188037  0.58599876  0.92519819     0.98800
C77         C  0.77855625  0.61212532  0.86523799     1.06200
O78         O  0.70706765  0.58030332  0.85680338    -1.11000
O79         O  0.67962005  0.60543111  0.80451843    -0.73400
O80         O  0.70352134  0.64279448  0.83004745    -0.76900
O81         O  0.73403996  0.56293698  0.91199414    -0.77600
C82         C  0.69158283  0.63255403  0.80704442     0.97700
O83         O  0.65863050  0.62668767  0.87598854    -0.75500
O84         O  0.70598673  0.54366410  0.80382087    -0.80700
C85         C  0.68102345  0.50730684  0.86763635     1.00300
C86         C  0.73366226  0.53302566  0.80596674     1.06200
O87         O  0.70862423  0.51382255  0.87603672    -0.76400
C88         C  0.63515361  0.61099921  0.86752944     1.04500
Fe89       Fe  0.63391342  0.29250695  0.12245480     1.65800
Fe90       Fe  0.57594131  0.32499389  0.16358785     1.73200
Fe91       Fe  0.56011088  0.25924142  0.12363532     1.54400
O92         O  0.57248221  0.26544873  0.08124508    -0.80100
O93         O  0.55326250  0.29318297  0.18947600    -0.78400
O94         O  0.61951906  0.28902449  0.08043020    -0.82600
O95         O  0.63934101  0.24457876  0.12552137    -0.77500
O96         O  0.52343337  0.29080540  0.11731983    -0.79200
O97         O  0.61508173  0.31945131  0.18891050    -0.82000
C98         C  0.62176378  0.22080616  0.12793840     0.98800
C99         C  0.59558584  0.27753952  0.06805211     1.06200
O100        O  0.58994452  0.29225211  0.13650566    -1.11000
O101        O  0.59674345  0.36169418  0.14178672    -0.73400
O102        O  0.63625862  0.34073139  0.11727261    -0.76900
O103        O  0.59204227  0.22260972  0.12833906    -0.77600
C104        C  0.62064900  0.36418355  0.12590012     0.97700
O105        O  0.65249966  0.29586441  0.16321819    -0.75500
O106        O  0.53490409  0.33426423  0.14180021    -0.80700
C107        C  0.54263832  0.26551002  0.18727193     1.00300
C108        C  0.51697878  0.31841133  0.12574747     1.06200
O109        O  0.54426931  0.24945666  0.16452334    -0.76400
C110        C  0.64225439  0.30762792  0.18629301     1.04500
Fe111      Fe  0.63412097  0.29237830  0.87085534     1.65800
Fe112      Fe  0.57620092  0.32498636  0.82974219     1.73200
Fe113      Fe  0.56033598  0.25910898  0.86949965     1.54400
O114        O  0.59225080  0.22249502  0.86469574    -0.80100
O115        O  0.53508754  0.33412010  0.85144069    -0.78400
O116        O  0.63953032  0.24443909  0.86785718    -0.82600
O117        O  0.61963826  0.28896588  0.91284708    -0.77500
O118        O  0.54449454  0.24948998  0.82856442    -0.79200
O119        O  0.59687379  0.36162384  0.85172436    -0.82000
C120        C  0.59572618  0.27737195  0.92516890     0.98800
C121        C  0.62196459  0.22067947  0.86527210     1.06200
O122        O  0.59017260  0.29216049  0.85674974    -1.11000
O123        O  0.61542777  0.31958699  0.80451199    -0.73400
O124        O  0.65272424  0.29566779  0.83010867    -0.76900
O125        O  0.57270507  0.26517950  0.91192188    -0.77600
C126        C  0.64254016  0.30761106  0.80708730     0.97700
O127        O  0.63653798  0.34060321  0.87599784    -0.75500
O128        O  0.55363903  0.29324351  0.80369645    -0.80700
C129        C  0.51718308  0.31823434  0.86747876     1.00300
C130        C  0.54294703  0.26559040  0.80583552     1.06200
O131        O  0.52366979  0.29063804  0.87589990    -0.76400
C132        C  0.62086039  0.36407305  0.86751636     1.04500
Fe133      Fe  0.30218206  0.36570588  0.12227627     1.65800
Fe134      Fe  0.33469682  0.42372540  0.16334059     1.73200
Fe135      Fe  0.26888429  0.43948308  0.12344604     1.54400
O136        O  0.27511356  0.42710680  0.08105976    -0.80100
O137        O  0.30287796  0.44635663  0.18926232    -0.78400
O138        O  0.29872849  0.38008900  0.08025862    -0.82600
O139        O  0.25424715  0.36025399  0.12531930    -0.77500
O140        O  0.30039285  0.47620059  0.11712846    -0.79200
O141        O  0.32923039  0.38457720  0.18866269    -0.82000
C142        C  0.23047157  0.37782316  0.12774924     0.98800
C143        C  0.28724411  0.40401577  0.06787820     1.06200
O144        O  0.30192634  0.40968300  0.13630033    -1.11000
O145        O  0.37139375  0.40296605  0.14149026    -0.73400
O146        O  0.35041148  0.36334809  0.11712208    -0.76900
O147        O  0.23227364  0.40753883  0.12815459    -0.77600
C148        C  0.37387177  0.37899881  0.12567709     0.97700
O149        O  0.30551909  0.34716761  0.16304633    -0.75500
O150        O  0.34389706  0.46478074  0.14156127    -0.80700
C151        C  0.27518289  0.45693782  0.18708335     1.00300
C152        C  0.32799748  0.48269417  0.12553912     1.06200
O153        O  0.25910905  0.45529717  0.16434417    -0.76400
C154        C  0.31735430  0.35742177  0.18608888     1.04500
Fe155      Fe  0.30237265  0.36544355  0.87071359     1.65800
Fe156      Fe  0.33498037  0.42335925  0.82960346     1.73200
Fe157      Fe  0.26911779  0.43921930  0.86938320     1.54400
O158        O  0.23249410  0.40731889  0.86457876    -0.80100
O159        O  0.34412387  0.46448154  0.85129948    -0.78400
O160        O  0.25442470  0.36004351  0.86776966    -0.82600
O161        O  0.29902133  0.37992759  0.91270525    -0.77500
O162        O  0.25948275  0.45506031  0.82846300    -0.79200
O163        O  0.37163007  0.40269444  0.85158033    -0.82000
C164        C  0.28741432  0.40383047  0.92502833     0.98800
C165        C  0.23066843  0.37761056  0.86517936     1.06200
O166        O  0.30216124  0.40938803  0.85661783    -1.11000
O167        O  0.32956587  0.38412522  0.80437504    -0.73400
O168        O  0.30559664  0.34685532  0.82996097    -0.76900
O169        O  0.27520085  0.42683958  0.91178974    -0.77600
C170        C  0.31754855  0.35703001  0.80694230     0.97700
O171        O  0.35060099  0.36300432  0.87580536    -0.75500
O172        O  0.30321594  0.44590673  0.80356534    -0.80700
C173        C  0.32824418  0.48237495  0.86735433     1.00300
C174        C  0.27556112  0.45659528  0.80572317     1.06200
O175        O  0.30065483  0.47587535  0.87578877    -0.76400
C176        C  0.37407430  0.37868712  0.86734185     1.04500
Fe177      Fe  0.70697090  0.36562086  0.37087646     1.65800
Fe178      Fe  0.67444392  0.42356219  0.32973717     1.73200
Fe179      Fe  0.74026095  0.43940866  0.36960178     1.54400
O180        O  0.73406886  0.42710246  0.41200867    -0.80100
O181        O  0.70621987  0.44625323  0.30381802    -0.78400
O182        O  0.71052370  0.38005131  0.41287249    -0.82600
O183        O  0.75488949  0.36017281  0.36776507    -0.77500
O184        O  0.70872943  0.47611810  0.37587127    -0.79200
O185        O  0.67998770  0.38442218  0.30442076    -0.82000
C186        C  0.77866703  0.37774155  0.36534683     0.98800
C187        C  0.72200724  0.40399813  0.42522206     1.06200
O188        O  0.70722056  0.40957462  0.35679352    -1.11000
O189        O  0.63776092  0.40275152  0.35156407    -0.73400
O190        O  0.65875726  0.36329013  0.37612320    -0.76900
O191        O  0.77687478  0.40745919  0.36493783    -0.77600
C192        C  0.63529210  0.37887209  0.36748463     0.97700
O193        O  0.70354866  0.34700346  0.33013444    -0.75500
O194        O  0.66518713  0.46459570  0.35152527    -0.80700
C195        C  0.73391663  0.45683567  0.30596693     1.00300
C196        C  0.68109759  0.48255731  0.36749716     1.06200
O197        O  0.75002645  0.45517260  0.32868337    -0.76400
C198        C  0.69179633  0.35724597  0.30705277     1.04500
Fe199      Fe  0.70710561  0.36537336  0.62244194     1.65800
Fe200      Fe  0.67442874  0.42336258  0.66342822     1.73200
Fe201      Fe  0.74031970  0.43918560  0.62367483     1.54400
O202        O  0.77696305  0.40729020  0.62851187    -0.80100
O203        O  0.66525162  0.46441365  0.64163641    -0.78400
O204        O  0.75504439  0.35998752  0.62553544    -0.82600
O205        O  0.71059628  0.37975029  0.58042591    -0.77500
O206        O  0.74993774  0.45508087  0.66458416    -0.79200
O207        O  0.63781762  0.40259032  0.64148218    -0.82000
C208        C  0.72213389  0.40366921  0.56807383     0.98800
C209        C  0.77879801  0.37757521  0.62804875     1.06200
O210        O  0.70728068  0.40935302  0.63646188    -1.11000
O211        O  0.67986540  0.38421158  0.68875627    -0.73400
O212        O  0.70375174  0.34685732  0.66321287    -0.76900
O213        O  0.73424793  0.42675052  0.58128469    -0.77600
C214        C  0.69183149  0.35709155  0.68622269     0.97700
O215        O  0.65888482  0.36294056  0.61722642    -0.75500
O216        O  0.70614837  0.44602094  0.68942909    -0.80700
C217        C  0.68114763  0.48231963  0.62560661     1.00300
C218        C  0.73381435  0.45668616  0.68729442     1.06200
O219        O  0.70876647  0.47584168  0.61722811    -0.76400
C220        C  0.63539582  0.37859934  0.62569544     1.04500
Fe221      Fe  0.63386292  0.69741849  0.37074777     1.65800
Fe222      Fe  0.57593747  0.66484461  0.32960253     1.73200
Fe223      Fe  0.56004264  0.73062577  0.36947986     1.54400
O224        O  0.57237335  0.72441975  0.41188716    -0.80100
O225        O  0.55326255  0.69661882  0.30366170    -0.78400
O226        O  0.61942036  0.70086150  0.41274494    -0.82600
O227        O  0.63925892  0.74535000  0.36770123    -0.77500
O228        O  0.52336394  0.69906650  0.37575728    -0.79200
O229        O  0.61510472  0.67040198  0.30431834    -0.82000
C230        C  0.62166748  0.76910340  0.36523974     0.98800
C231        C  0.59546651  0.71232318  0.42509759     1.06200
O232        O  0.58990249  0.69762376  0.35666422    -1.11000
O233        O  0.59674234  0.62817751  0.35145686    -0.73400
O234        O  0.63627102  0.64919942  0.37591895    -0.76900
O235        O  0.59195103  0.76727266  0.36479972    -0.77600
C236        C  0.62067145  0.62572497  0.36732423     0.97700
O237        O  0.65246569  0.69410521  0.33000439    -0.75500
O238        O  0.53487657  0.65556894  0.35135575    -0.80700
C239        C  0.54264405  0.72429845  0.30582441     1.00300
C240        C  0.51692090  0.67145038  0.36735390     1.06200
O241        O  0.54425798  0.74037937  0.32856027    -0.76400
C242        C  0.64224917  0.68229740  0.30693748     1.04500
Fe243      Fe  0.63401422  0.69716034  0.62231486     1.65800
Fe244      Fe  0.57598528  0.66457812  0.66330442     1.73200
Fe245      Fe  0.56026469  0.73050200  0.62356157     1.54400
O246        O  0.59220564  0.76708107  0.62843419    -0.80100
O247        O  0.53486811  0.65553408  0.64156746    -0.78400
O248        O  0.63946636  0.74510616  0.62528836    -0.82600
O249        O  0.61959619  0.70055683  0.58030100    -0.77500
O250        O  0.54438020  0.74011546  0.66447145    -0.79200
O251        O  0.59661561  0.62791979  0.64130943    -0.82000
C252        C  0.59572255  0.71220382  0.56795370     0.98800
C253        C  0.62191927  0.76887900  0.62787119     1.06200
O254        O  0.59004047  0.69740963  0.63634091    -1.11000
O255        O  0.61519842  0.66988032  0.68858180    -0.73400
O256        O  0.65252632  0.69388950  0.66309720    -0.76900
O257        O  0.57270923  0.72444047  0.58116958    -0.77600
C258        C  0.64230542  0.68188931  0.68607875     0.97700
O259        O  0.63641712  0.64892217  0.61721353    -0.75500
O260        O  0.55347253  0.69635521  0.68934879    -0.80700
C261        C  0.51701269  0.67144210  0.62550081     1.00300
C262        C  0.54282009  0.72402341  0.68720252     1.06200
O263        O  0.52356157  0.69902482  0.61708144    -0.76400
C264        C  0.62067787  0.62545701  0.62561628     1.04500
Fe265      Fe  0.30196192  0.62443996  0.37058140     1.65800
Fe266      Fe  0.33456081  0.56648595  0.32950146     1.73200
Fe267      Fe  0.26876190  0.55061534  0.36937170     1.54400
O268        O  0.27492140  0.56300118  0.41176255    -0.80100
O269        O  0.30278348  0.54382903  0.30355215    -0.78400
O270        O  0.29847266  0.61004887  0.41260150    -0.82600
O271        O  0.25402684  0.62982426  0.36748397    -0.77500
O272        O  0.30034209  0.51395819  0.37572869    -0.79200
O273        O  0.32906292  0.60563995  0.30419065    -0.82000
C274        C  0.23027015  0.61223000  0.36503423     0.98800
C275        C  0.28699967  0.58610556  0.42496558     1.06200
O276        O  0.30176615  0.58046895  0.35653856    -1.11000
O277        O  0.37121427  0.58727528  0.35138626    -0.73400
O278        O  0.35018736  0.62683996  0.37578982    -0.76900
O279        O  0.23210206  0.58251281  0.36462614    -0.77600
C280        C  0.37366389  0.61121618  0.36723518     0.97700
O281        O  0.30531785  0.64300781  0.32982064    -0.75500
O282        O  0.34380803  0.52543102  0.35126635    -0.80700
C283        C  0.27511581  0.53317677  0.30572977     1.00300
C284        C  0.32795255  0.50750388  0.36731013     1.06200
O285        O  0.25904558  0.53476700  0.32847061    -0.76400
C286        C  0.31716635  0.63278318  0.30677579     1.04500
Fe287      Fe  0.30217785  0.62425242  0.62216648     1.65800
Fe288      Fe  0.33477692  0.56631651  0.66325676     1.73200
Fe289      Fe  0.26889233  0.55047630  0.62348036     1.54400
O290        O  0.23228484  0.58239421  0.62827809    -0.80100
O291        O  0.34393447  0.52523919  0.64150827    -0.78400
O292        O  0.25424175  0.62966980  0.62518434    -0.82600
O293        O  0.29872683  0.60979569  0.58017044    -0.77500
O294        O  0.25925108  0.53463679  0.66440213    -0.79200
O295        O  0.37142851  0.58704260  0.64132995    -0.82000
C296        C  0.28712896  0.58589342  0.56783512     0.98800
C297        C  0.23047713  0.61210567  0.62773638     1.06200
O298        O  0.30195329  0.58030174  0.63624821    -1.11000
O299        O  0.32933706  0.60550426  0.68853168    -0.73400
O300        O  0.30550168  0.64284024  0.66292216    -0.76900
O301        O  0.27496431  0.56285255  0.58106661    -0.77600
C302        C  0.31739837  0.63263104  0.68595553     0.97700
O303        O  0.35039916  0.62665909  0.61700530    -0.75500
O304        O  0.30303362  0.54370482  0.68926024    -0.80700
C305        C  0.32802931  0.50732579  0.62548853     1.00300
C306        C  0.27536547  0.53304665  0.68712105     1.06200
O307        O  0.30041837  0.51380393  0.61708935    -0.76400
C308        C  0.37387472  0.61101397  0.62552318     1.04500
Fe309      Fe  0.37515779  0.29268348  0.37071161     1.65800
Fe310      Fe  0.43317199  0.32517972  0.32964381     1.73200
Fe311      Fe  0.44891829  0.25935008  0.36951246     1.54400
O312        O  0.43651772  0.26551236  0.41189698    -0.80100
O313        O  0.45573138  0.29335018  0.30367872    -0.78400
O314        O  0.38956728  0.28926517  0.41272981    -0.82600
O315        O  0.36969776  0.24474604  0.36771528    -0.77500
O316        O  0.48562459  0.29085497  0.37589993    -0.79200
O317        O  0.39398383  0.31978206  0.30435182    -0.82000
C318        C  0.38725108  0.22096592  0.36522677     0.98800
C319        C  0.41346692  0.27769626  0.42509508     1.06200
O320        O  0.41912841  0.29240873  0.35667570    -1.11000
O321        O  0.41248448  0.36188295  0.35154361    -0.73400
O322        O  0.37280044  0.34091955  0.37583015    -0.76900
O323        O  0.41696852  0.22275598  0.36474296    -0.77600
C324        C  0.38848928  0.36437210  0.36732044     0.97700
O325        O  0.35661011  0.29598030  0.32993714    -0.75500
O326        O  0.47426277  0.33431835  0.35139397    -0.80700
C327        C  0.46634955  0.26567197  0.30586562     1.00300
C328        C  0.49214173  0.31844074  0.36746490     1.06200
O329        O  0.46476322  0.24962146  0.32861758    -0.76400
C330        C  0.36684216  0.30786803  0.30691098     1.04500
Fe331      Fe  0.37520825  0.29250344  0.62229205     1.65800
Fe332      Fe  0.43317188  0.32512085  0.66336118     1.73200
Fe333      Fe  0.44900055  0.25925813  0.62357553     1.54400
O334        O  0.41709009  0.22263596  0.62835803    -0.80100
O335        O  0.47425342  0.33429456  0.64161059    -0.78400
O336        O  0.36980053  0.24456379  0.62528931    -0.82600
O337        O  0.38964924  0.28910441  0.58029391    -0.77500
O338        O  0.46484299  0.24960011  0.66449654    -0.79200
O339        O  0.41243591  0.36176045  0.64142833    -0.82000
C340        C  0.41356642  0.27755395  0.56794998     0.98800
C341        C  0.38737666  0.22080893  0.62783204     1.06200
O342        O  0.41917334  0.29229868  0.63635800    -1.11000
O343        O  0.39398196  0.31966905  0.68863820    -0.73400
O344        O  0.35665215  0.29578100  0.66305072    -0.76900
O345        O  0.43661410  0.26537928  0.58116876    -0.77600
C346        C  0.36686528  0.30769288  0.68607494     0.97700
O347        O  0.37277568  0.34072235  0.61715798    -0.75500
O348        O  0.45579764  0.29337652  0.68936285    -0.80700
C349        C  0.49216499  0.31838922  0.62559269     1.00300
C350        C  0.46644657  0.26570699  0.68721863     1.06200
O351        O  0.48567732  0.29078278  0.61719650    -0.76400
C352        C  0.38843917  0.36419879  0.62564692     1.04500
Fe353      Fe  0.87531266  0.19725298  0.62243928     1.65800
Fe354      Fe  0.93330621  0.16470312  0.66351075     1.73200
Fe355      Fe  0.94911225  0.23050731  0.62362830     1.54400
O356        O  0.93668316  0.22435501  0.58123904    -0.80100
O357        O  0.95592012  0.19650486  0.68946808    -0.78400
O358        O  0.88970188  0.20066058  0.58041830    -0.82600
O359        O  0.86990496  0.24519441  0.62545009    -0.77500
O360        O  0.98578102  0.19895686  0.61723931    -0.79200
O361        O  0.89413412  0.17016019  0.68880747    -0.82000
C362        C  0.88748121  0.26895825  0.62794814     0.98800
C363        C  0.91360863  0.21219909  0.56804504     1.06200
O364        O  0.91929049  0.19748226  0.63647221    -1.11000
O365        O  0.91256220  0.12802287  0.64162111    -0.73400
O366        O  0.87290496  0.14901852  0.61731536    -0.76900
O367        O  0.91719953  0.26714025  0.62841348    -0.77600
C368        C  0.88857043  0.12555341  0.62583307     0.97700
O369        O  0.85677551  0.19397597  0.66321071    -0.75500
O370        O  0.97438282  0.15551063  0.64175796    -0.80700
C371        C  0.96657547  0.22416843  0.68727668     1.00300
C372        C  0.99227668  0.17136859  0.62568484     1.06200
O373        O  0.96499609  0.24021901  0.66452289    -0.76400
C374        C  0.86700336  0.18209718  0.68624231     1.04500
Fe375      Fe  0.87507882  0.19725267  0.37085658     1.65800
Fe376      Fe  0.93303543  0.16470733  0.32975218     1.73200
Fe377      Fe  0.94882930  0.23059328  0.36952295     1.54400
O378        O  0.91688036  0.26717046  0.36474881    -0.80100
O379        O  0.97414493  0.15559558  0.35147429    -0.78400
O380        O  0.86961905  0.24518962  0.36788447    -0.82600
O381        O  0.88956542  0.20065375  0.41284986    -0.77500
O382        O  0.96462583  0.24026227  0.32859272    -0.79200
O383        O  0.91237422  0.12803781  0.35170205    -0.82000
C384        C  0.91347403  0.21225651  0.42517640     0.98800
C385        C  0.88716783  0.26896333  0.36531819     1.06200
O386        O  0.91902728  0.19751376  0.35676208    -1.11000
O387        O  0.89381469  0.17009762  0.30450646    -0.73400
O388        O  0.85648821  0.19396796  0.33010229    -0.76900
O389        O  0.93648368  0.22447418  0.41193802    -0.77600
C390        C  0.86669215  0.18205149  0.30707755     0.97700
O391        O  0.87269631  0.14902649  0.37597219    -0.75500
O392        O  0.95558570  0.19648138  0.30372931    -0.80700
C393        C  0.99204485  0.17151447  0.36749454     1.00300
C394        C  0.96621183  0.22416116  0.30586716     1.06200
O395        O  0.98553905  0.19911312  0.37589502    -0.76400
C396        C  0.88838208  0.12556843  0.36748085     1.04500
Fe397      Fe  0.13396452  0.79243833  0.62225123     1.65800
Fe398      Fe  0.07599052  0.82495474  0.66335673     1.73200
Fe399      Fe  0.06017955  0.75914177  0.62348913     1.54400
O400        O  0.07250194  0.76536959  0.58109143    -0.80100
O401        O  0.05332967  0.79315729  0.68928396    -0.78400
O402        O  0.11953218  0.78896973  0.58024675    -0.82600
O403        O  0.13941234  0.74451250  0.62529382    -0.77500
O404        O  0.02346227  0.79065043  0.61720703    -0.79200
O405        O  0.11514397  0.81944725  0.68866788    -0.82000
C406        C  0.12184274  0.72073716  0.62771939     0.98800
C407        C  0.09558735  0.77748474  0.56788858     1.06200
O408        O  0.09000104  0.79218254  0.63631221    -1.11000
O409        O  0.09677217  0.86164646  0.64151502    -0.73400
O410        O  0.13632714  0.84065928  0.61707601    -0.76900
O411        O  0.09212564  0.72253455  0.62815406    -0.77600
C412        C  0.12070752  0.86412087  0.62566240     0.97700
O413        O  0.15254680  0.79578427  0.66301015    -0.75500
O414        O  0.03494412  0.83418264  0.64157151    -0.80700
C415        C  0.04275961  0.76545673  0.68712883     1.00300
C416        C  0.01700312  0.81827135  0.62558211     1.06200
O417        O  0.04441466  0.74936279  0.66440403    -0.76400
C418        C  0.14230361  0.80758697  0.68606898     1.04500
Fe419      Fe  0.13391825  0.79268389  0.37067610     1.65800
Fe420      Fe  0.07590978  0.82532299  0.32967941     1.73200
Fe421      Fe  0.06012833  0.75942288  0.36943125     1.54400
O422        O  0.09203155  0.72281060  0.36454087    -0.80100
O423        O  0.03482170  0.83443452  0.35143992    -0.78400
O424        O  0.13932255  0.74474100  0.36763256    -0.82600
O425        O  0.11953084  0.78923623  0.41268822    -0.77500
O426        O  0.04420208  0.74983107  0.32852680    -0.79200
O427        O  0.09662054  0.86194926  0.35165462    -0.82000
C428        C  0.09564401  0.77762867  0.42503784     0.98800
C429        C  0.12174645  0.72098610  0.36505774     1.06200
O430        O  0.08993822  0.79248191  0.35664875    -1.11000
O431        O  0.11509441  0.81994743  0.30438291    -0.73400
O432        O  0.15243293  0.79599952  0.32990518    -0.76900
O433        O  0.07259326  0.76545517  0.41182370    -0.77600
C434        C  0.14220699  0.80795704  0.30690715     0.97700
O435        O  0.13634167  0.84090941  0.37584130    -0.75500
O436        O  0.05331604  0.79358346  0.30364857    -0.80700
C437        C  0.01695269  0.81854091  0.36750644     1.00300
C438        C  0.04263169  0.76592768  0.30579908     1.06200
O439        O  0.02347293  0.79094873  0.37591973    -0.76400
C440        C  0.12064509  0.86438687  0.36740253     1.04500
Fe441      Fe  0.80212171  0.86543331  0.62225667     1.65800
Fe442      Fe  0.83474295  0.92332863  0.66340480     1.73200
Fe443      Fe  0.76894855  0.93926679  0.62354547     1.54400
O444        O  0.77510113  0.92693506  0.58113878    -0.80100
O445        O  0.80299961  0.94602666  0.68935123    -0.78400
O446        O  0.79860966  0.87986913  0.58025640    -0.82600
O447        O  0.75419230  0.86005542  0.62535516    -0.77500
O448        O  0.80054132  0.97592449  0.61724922    -0.79200
O449        O  0.82917364  0.88417019  0.68869731    -0.82000
C450        C  0.73044184  0.87765296  0.62780758     0.98800
C451        C  0.78714412  0.90382857  0.56791491     1.06200
O452        O  0.80194298  0.90938767  0.63634767    -1.11000
O453        O  0.87138455  0.90250448  0.64154157    -0.73400
O454        O  0.85033574  0.86302967  0.61702939    -0.76900
O455        O  0.73228071  0.90736941  0.62823933    -0.77600
C456        C  0.87381991  0.87860622  0.62563958     0.97700
O457        O  0.80549247  0.84681298  0.66299609    -0.75500
O458        O  0.84403852  0.96438026  0.64164928    -0.80700
C459        C  0.77533096  0.95667799  0.68719302     1.00300
C460        C  0.82816705  0.98234855  0.62565298     1.06200
O461        O  0.75923331  0.95506958  0.66446492    -0.76400
C462        C  0.81729371  0.85702255  0.68606922     1.04500
Fe463      Fe  0.80204013  0.86551247  0.37069202     1.65800
Fe464      Fe  0.83467754  0.92349424  0.32967911     1.73200
Fe465      Fe  0.76878867  0.93930418  0.36944215     1.54400
O466        O  0.73216704  0.90739938  0.36460365    -0.80100
O467        O  0.84383319  0.96455583  0.35145659    -0.78400
O468        O  0.75410179  0.86010770  0.36761140    -0.82600
O469        O  0.79855250  0.87991081  0.41270152    -0.77500
O470        O  0.75916311  0.95518326  0.32853213    -0.79200
O471        O  0.87130745  0.90275522  0.35162665    -0.82000
C472        C  0.78698955  0.90381668  0.42505366     0.98800
C473        C  0.73034433  0.87768649  0.36508564     1.06200
O474        O  0.80183924  0.90948289  0.35665739    -1.11000
O475        O  0.82925750  0.88433058  0.30436811    -0.73400
O476        O  0.80539734  0.84697120  0.32992482    -0.76900
O477        O  0.77485395  0.92688414  0.41184062    -0.77600
C478        C  0.81731107  0.85720314  0.30691047     0.97700
O479        O  0.85026301  0.86310899  0.37590265    -0.75500
O480        O  0.80294029  0.94611725  0.30367304    -0.80700
C481        C  0.82793782  0.98245095  0.36749557     1.00300
C482        C  0.77527334  0.95677576  0.30581447     1.06200
O483        O  0.80032606  0.97596536  0.37588420    -0.76400
C484        C  0.87374392  0.87877494  0.36742388     1.04500
Fe485      Fe  0.20714070  0.12420404  0.62238394     1.65800
Fe486      Fe  0.17458651  0.06621390  0.66344047     1.73200
Fe487      Fe  0.24040173  0.05040765  0.62356954     1.54400
O488        O  0.23419793  0.06277255  0.58117997    -0.80100
O489        O  0.20637776  0.04354012  0.68935978    -0.78400
O490        O  0.21064177  0.10981860  0.58036850    -0.82600
O491        O  0.25506964  0.12963225  0.62547608    -0.77500
O492        O  0.20886259  0.01370766  0.61724800    -0.79200
O493        O  0.18008980  0.10534492  0.68878087    -0.82000
C494        C  0.27884209  0.11205600  0.62788558     0.98800
C495        C  0.22211126  0.08588215  0.56799278     1.06200
O496        O  0.20737238  0.08023062  0.63641076    -1.11000
O497        O  0.13790841  0.08701229  0.64159041    -0.73400
O498        O  0.15891780  0.12656967  0.61716887    -0.76900
O499        O  0.27703439  0.08233859  0.62827610    -0.77600
C500        C  0.13544682  0.11094758  0.62573713     0.97700
O501        O  0.20376658  0.14275821  0.66315184    -0.75500
O502        O  0.16534894  0.02518178  0.64163992    -0.80700
C503        C  0.23406919  0.03294899  0.68719464     1.00300
C504        C  0.18124083  0.00724850  0.62563249     1.06200
O505        O  0.25016005  0.03459736  0.66447001    -0.76400
C506        C  0.19195182  0.13250485  0.68620131     1.04500
Fe507      Fe  0.20692236  0.12446674  0.37081669     1.65800
Fe508      Fe  0.17430302  0.06654274  0.32970779     1.73200
Fe509      Fe  0.24016586  0.05067638  0.36949572     1.54400
O510        O  0.27679503  0.08258335  0.36469655    -0.80100
O511        O  0.16511531  0.02546283  0.35145105    -0.78400
O512        O  0.25486060  0.12986791  0.36779478    -0.82600
O513        O  0.21036354  0.11001149  0.41281303    -0.77500
O514        O  0.24979980  0.03481684  0.32857857    -0.79200
O515        O  0.13766658  0.08727759  0.35163629    -0.82000
C516        C  0.22194181  0.08609638  0.42513883     0.98800
C517        C  0.27861750  0.11229614  0.36523764     1.06200
O518        O  0.20712623  0.08051607  0.35672523    -1.11000
O519        O  0.17976804  0.10573628  0.30443958    -0.73400
O520        O  0.20360963  0.14305813  0.33006732    -0.76900
O521        O  0.23409542  0.06305714  0.41190111    -0.77600
C522        C  0.19171853  0.13285895  0.30702799     0.97700
O523        O  0.15870328  0.12688234  0.37597872    -0.75500
O524        O  0.20603697  0.04391776  0.30370443    -0.80700
C525        C  0.18100069  0.00755122  0.36748752     1.00300
C526        C  0.23369372  0.03323515  0.30585398     1.06200
O527        O  0.20861092  0.01402421  0.37589527    -0.76400
C528        C  0.13522680  0.11123953  0.36745523     1.04500
Fe529      Fe  0.80225314  0.12440312  0.12235831     1.65800
Fe530      Fe  0.83483660  0.06637832  0.16336344     1.73200
Fe531      Fe  0.76894289  0.05064057  0.12357308     1.54400
O532        O  0.73234469  0.08257253  0.12838842    -0.80100
O533        O  0.84396221  0.02531003  0.14158016    -0.78400
O534        O  0.75431243  0.12984636  0.12537886    -0.82600
O535        O  0.79882001  0.11001002  0.08034245    -0.77500
O536        O  0.75927691  0.03477549  0.16447412    -0.79200
O537        O  0.87149451  0.08709387  0.14143802    -0.82000
C538        C  0.78724975  0.08610745  0.06798511     0.98800
C539        C  0.73054064  0.11228557  0.12790060     1.06200
O540        O  0.80201587  0.08042781  0.13637894    -1.11000
O541        O  0.82943956  0.10554520  0.18867957    -0.73400
O542        O  0.80556184  0.14290943  0.16313612    -0.76900
O543        O  0.77506488  0.06306031  0.08118807    -0.77600
C544        C  0.81747659  0.13266738  0.18614743     0.97700
O545        O  0.85048222  0.12679774  0.11721647    -0.75500
O546        O  0.80306519  0.04377450  0.18934863    -0.80700
C547        C  0.82804336  0.00742875  0.12554201     1.00300
C548        C  0.77538148  0.03315595  0.18719622     1.06200
O549        O  0.80043888  0.01394509  0.11715094    -0.76400
C550        C  0.87395074  0.11110585  0.12568316     1.04500
Fe551      Fe  0.80231510  0.12417803  0.87080574     1.65800
Fe552      Fe  0.83487442  0.06623396  0.82969175     1.73200
Fe553      Fe  0.76904040  0.05038981  0.86951658     1.54400
O554        O  0.77523135  0.06271349  0.91192566    -0.80100
O555        O  0.80309113  0.04360763  0.80372093    -0.78400
O556        O  0.79884460  0.10973396  0.91279758    -0.82600
O557        O  0.75438248  0.12961216  0.86775526    -0.77500
O558        O  0.80055879  0.01367899  0.87580892    -0.79200
O559        O  0.82939151  0.10541405  0.80441290    -0.82000
C560        C  0.73061128  0.11204077  0.86529271     0.98800
C561        C  0.78734285  0.08579480  0.92514183     1.06200
O562        O  0.80208148  0.08022182  0.85672564    -1.11000
O563        O  0.87154968  0.08698699  0.85158597    -0.73400
O564        O  0.85053872  0.12655564  0.87599079    -0.76900
O565        O  0.73241991  0.08232626  0.86482940    -0.77600
C566        C  0.87400935  0.11093097  0.86743053     0.97700
O567        O  0.80565754  0.14277637  0.83006294    -0.75500
O568        O  0.84408335  0.02515414  0.85143253    -0.80700
C569        C  0.77540095  0.03300377  0.80586296     1.00300
C570        C  0.82817141  0.00720757  0.86741308     1.06200
O571        O  0.75930153  0.03462166  0.82858721    -0.76400
C572        C  0.81750010  0.13255867  0.80701360     1.04500
Fe573      Fe  0.87498824  0.79251888  0.12222687     1.65800
Fe574      Fe  0.93297295  0.82513588  0.16326725     1.73200
Fe575      Fe  0.94878055  0.75925358  0.12349841     1.54400
O576        O  0.91686786  0.72264575  0.12834454    -0.80100
O577        O  0.97406922  0.83425683  0.14153196    -0.78400
O578        O  0.86957689  0.74457987  0.12527251    -0.82600
O579        O  0.88939872  0.78905517  0.08021462    -0.77500
O580        O  0.96467506  0.74963881  0.16441287    -0.79200
O581        O  0.91227667  0.86176989  0.14130116    -0.82000
C582        C  0.91329785  0.77746148  0.06787171     0.98800
C583        C  0.88715328  0.72082477  0.12782863     1.06200
O584        O  0.91896020  0.79230675  0.13627747    -1.11000
O585        O  0.89377951  0.81975688  0.18854600    -0.73400
O586        O  0.85643709  0.79585351  0.16299201    -0.76900
O587        O  0.93634914  0.76530511  0.08109710    -0.77600
C588        C  0.86665539  0.80779819  0.18600125     0.97700
O589        O  0.87258587  0.84074462  0.11705822    -0.75500
O590        O  0.95555055  0.79339037  0.18929060    -0.80700
C591        C  0.99195743  0.81837110  0.12547869     1.00300
C592        C  0.96623727  0.76573751  0.18714205     1.06200
O593        O  0.98545042  0.79077883  0.11705266    -0.76400
C594        C  0.88827309  0.86421694  0.12552904     1.04500
Fe595      Fe  0.87515220  0.79222613  0.87061853     1.65800
Fe596      Fe  0.93307152  0.82480421  0.82948729     1.73200
Fe597      Fe  0.94899225  0.75904877  0.86939623     1.54400
O598        O  0.93664440  0.76524587  0.91179797    -0.80100
O599        O  0.95577447  0.79303419  0.80357038    -0.78400
O600        O  0.88957261  0.78875079  0.91262809    -0.82600
O601        O  0.86978022  0.74429797  0.86753967    -0.77500
O602        O  0.98564605  0.79064142  0.87569221    -0.79200
O603        O  0.89392385  0.81922525  0.80417949    -0.82000
C604        C  0.88738114  0.72054685  0.86511770     0.98800
C605        C  0.91352811  0.77730691  0.92499695     1.06200
O606        O  0.91911634  0.79203043  0.85655446    -1.11000
O607        O  0.91224060  0.86146601  0.85132092    -0.73400
O608        O  0.87274674  0.84044484  0.87582170    -0.76900
O609        O  0.91709957  0.72238180  0.86471047    -0.77600
C610        C  0.88833381  0.86391961  0.86721058     0.97700
O611        O  0.85654597  0.79556686  0.82986651    -0.75500
O612        O  0.97411041  0.83411276  0.85126157    -0.80700
C613        C  0.96641860  0.76536678  0.80574928     1.00300
C614        C  0.99206697  0.81826065  0.86728349     1.06200
O615        O  0.96480677  0.74929367  0.82848831    -0.76400
C616        C  0.86676949  0.80735708  0.80679647     1.04500
Fe617      Fe  0.20678364  0.86562869  0.12223838     1.65800
Fe618      Fe  0.17417916  0.92357181  0.16331728     1.73200
Fe619      Fe  0.24006972  0.93939804  0.12356292     1.54400
O620        O  0.27667834  0.90748382  0.12836871    -0.80100
O621        O  0.16506947  0.96469719  0.14162022    -0.78400
O622        O  0.25473336  0.86021277  0.12519124    -0.82600
O623        O  0.21015173  0.88009987  0.08024514    -0.77500
O624        O  0.24970280  0.95523432  0.16449408    -0.79200
O625        O  0.13752518  0.90291206  0.14133155    -0.82000
C626        C  0.22176377  0.90399614  0.06791428     0.98800
C627        C  0.27849630  0.87777513  0.12777712     1.06200
O628        O  0.20700649  0.90958065  0.13632072    -1.11000
O629        O  0.17955853  0.88434275  0.18855134    -0.73400
O630        O  0.20353964  0.84705651  0.16299465    -0.76900
O631        O  0.23398044  0.92701253  0.08114811    -0.77600
C632        C  0.19156776  0.85724356  0.18600071     0.97700
O633        O  0.15855020  0.86319253  0.11714337    -0.75500
O634        O  0.20594314  0.94611154  0.18936493    -0.80700
C635        C  0.18097425  0.98259319  0.12558845     1.00300
C636        C  0.23360702  0.95678364  0.18722510     1.06200
O637        O  0.20856266  0.97607906  0.11716159    -0.76400
C638        C  0.13507633  0.87888400  0.12559337     1.04500
Fe639      Fe  0.20689293  0.86550603  0.87067811     1.65800
Fe640      Fe  0.17436411  0.92346869  0.82956381     1.73200
Fe641      Fe  0.24017224  0.93928426  0.86945404     1.54400
O642        O  0.23399192  0.92691471  0.91184616    -0.80100
O643        O  0.20618114  0.94605805  0.80360952    -0.78400
O644        O  0.21030498  0.87993415  0.91269140    -0.82600
O645        O  0.25483282  0.86007840  0.86767129    -0.77500
O646        O  0.20863750  0.97596613  0.87579867    -0.79200
O647        O  0.17982029  0.88428189  0.80428451    -0.82000
C648        C  0.27860236  0.87764727  0.86518018     0.98800
C649        C  0.22183018  0.90385726  0.92505126     1.06200
O650        O  0.20713735  0.90946554  0.85661820    -1.11000
O651        O  0.13767350  0.90274742  0.85144856    -0.73400
O652        O  0.15866031  0.86312440  0.87580108    -0.76900
O653        O  0.27679403  0.90736143  0.86471254    -0.77600
C654        C  0.13519924  0.87877988  0.86725948     0.97700
O655        O  0.20360316  0.84693406  0.82991616    -0.75500
O656        O  0.16517192  0.96455404  0.85130214    -0.80700
C657        C  0.23385849  0.95668490  0.80580167     1.00300
C658        C  0.18104346  0.98245615  0.86736072     1.06200
O659        O  0.24990915  0.95510533  0.82855616    -0.76400
C660        C  0.19174003  0.85714794  0.80687174     1.04500
Fe661      Fe  0.13400988  0.19752794  0.12240078     1.65800
Fe662      Fe  0.07607013  0.16490041  0.16347315     1.73200
Fe663      Fe  0.06019318  0.23073214  0.12365671     1.54400
O664        O  0.09208289  0.26737941  0.12844991    -0.80100
O665        O  0.03500224  0.15568719  0.14171301    -0.78400
O666        O  0.13938549  0.24546592  0.12542153    -0.82600
O667        O  0.11957771  0.20094709  0.08039527    -0.77500
O668        O  0.04431850  0.24038397  0.16456668    -0.79200
O669        O  0.09683088  0.12826781  0.14155807    -0.82000
C670        C  0.09565858  0.21248601  0.06804139     0.98800
C671        C  0.12179809  0.26921528  0.12794152     1.06200
O672        O  0.09004512  0.19771714  0.13645896    -1.11000
O673        O  0.11524983  0.17038355  0.18876194    -0.73400
O674        O  0.15258233  0.19423532  0.16316230    -0.76900
O675        O  0.07259403  0.22463013  0.08125386    -0.77600
C676        C  0.14237250  0.18234018  0.18619288     0.97700
O677        O  0.13644955  0.14930941  0.11724261    -0.75500
O678        O  0.05341958  0.19663670  0.18945628    -0.80700
C679        C  0.01708578  0.17155680  0.12566884     1.00300
C680        C  0.04273037  0.22428795  0.18729431     1.06200
O681        O  0.02354868  0.19916427  0.11725884    -0.76400
C682        C  0.12080428  0.12583103  0.12575263     1.04500
Fe683      Fe  0.13407860  0.19734538  0.87079511     1.65800
Fe684      Fe  0.07608708  0.16483363  0.82969128     1.73200
Fe685      Fe  0.06029042  0.23063738  0.86957510     1.54400
O686        O  0.07267151  0.22446925  0.91196732    -0.80100
O687        O  0.05346737  0.19663625  0.80374890    -0.78400
O688        O  0.11967859  0.20083475  0.91281178    -0.82600
O689        O  0.13952198  0.24527324  0.86773162    -0.77500
O690        O  0.02359585  0.19910566  0.87592425    -0.79200
O691        O  0.11525207  0.17028896  0.80439026    -0.82000
C692        C  0.12195203  0.26904563  0.86527956     0.98800
C693        C  0.09575528  0.21235396  0.92517301     1.06200
O694        O  0.09010800  0.19760203  0.85674031    -1.11000
O695        O  0.09682917  0.12814968  0.85156180    -0.73400
O696        O  0.13641892  0.14912173  0.87598041    -0.76900
O697        O  0.09223256  0.26724668  0.86484234    -0.77600
C698        C  0.12076974  0.12566796  0.86741019     0.97700
O699        O  0.15265526  0.19397649  0.83003362    -0.75500
O700        O  0.03502225  0.15563593  0.85145049    -0.80700
C701        C  0.04283858  0.22430913  0.80592973     1.00300
C702        C  0.01711360  0.17150616  0.86749778     1.06200
O703        O  0.04444752  0.24037649  0.82867315    -0.76400
C704        C  0.14241597  0.18214292  0.80698358     1.04500
C705        C  0.09482907  0.21180248  0.95580240    -0.16900
C706        C  0.09439448  0.21160588  0.98153368     0.07100
C707        C  0.09434648  0.21165218  0.01168115     0.09000
C708        C  0.09472396  0.21191200  0.03741269    -0.17800
C709        C  0.16745614  0.01230147  0.87501364    -0.16900
C710        C  0.15583496  0.03803756  0.87784711     0.07100
C711        C  0.14242574  0.06853246  0.87765369     0.09000
C712        C  0.13173095  0.09464550  0.87466301    -0.17800
C713        C  0.16744014  0.01246580  0.11796594    -0.16900
C714        C  0.15586357  0.03822458  0.11517809     0.07100
C715        C  0.14248798  0.06872843  0.11543278     0.09000
C716        C  0.13179619  0.09483335  0.11846806    -0.17800
C717        C  0.22120107  0.90495446  0.03728668    -0.16900
C718        C  0.22096963  0.90533414  0.01155526     0.07100
C719        C  0.22097560  0.90527296  0.98140844     0.09000
C720        C  0.22122454  0.90481670  0.95567818    -0.17800
C721        C  0.02189616  0.83190472  0.87492092    -0.16900
C722        C  0.04761373  0.84358176  0.87773137     0.07100
C723        C  0.07808448  0.85705457  0.87751061     0.09000
C724        C  0.10418082  0.86779269  0.87450607    -0.17800
C725        C  0.02180962  0.83194568  0.11783157    -0.16900
C726        C  0.04753437  0.84360741  0.11504236     0.07100
C727        C  0.07799368  0.85710013  0.11529881     0.09000
C728        C  0.10407381  0.86786797  0.11832745    -0.17800
C729        C  0.91443730  0.77788635  0.95562783    -0.16900
C730        C  0.91478205  0.77813837  0.98136071     0.07100
C731        C  0.91469655  0.77817539  0.01150944     0.09000
C732        C  0.91423922  0.77798309  0.03724116    -0.17800
C733        C  0.84172570  0.97732651  0.87500563    -0.16900
C734        C  0.85330671  0.95156255  0.87777406     0.07100
C735        C  0.86667269  0.92104722  0.87751112     0.09000
C736        C  0.87735096  0.89493183  0.87448045    -0.17800
C737        C  0.98727180  0.15790021  0.87514441    -0.16900
C738        C  0.96155810  0.14621356  0.87794647     0.07100
C739        C  0.93110315  0.13270400  0.87770916     0.09000
C740        C  0.90502025  0.12193502  0.87469160    -0.17800
C741        C  0.87728755  0.89522265  0.11825268    -0.16900
C742        C  0.86658565  0.92132970  0.11524657     0.07100
C743        C  0.85318438  0.95182639  0.11503770     0.09000
C744        C  0.84158573  0.97757187  0.11786792    -0.17800
C745        C  0.90495890  0.12209958  0.11841902    -0.16900
C746        C  0.93105339  0.13283537  0.11540809     0.07100
C747        C  0.96152685  0.14629475  0.11518816     0.09000
C748        C  0.98725117  0.15794925  0.11800811    -0.17800
C749        C  0.78784253  0.08514953  0.03736320    -0.16900
C750        C  0.78809799  0.08466215  0.01163653     0.07100
C751        C  0.78812175  0.08454171  0.98149474     0.09000
C752        C  0.78790325  0.08487171  0.95576561    -0.17800
C753        C  0.24639217  0.97235609  0.21181444    -0.16900
C754        C  0.25172078  0.98648791  0.23359344     0.07100
C755        C  0.25174669  0.00345428  0.25951438     0.09000
C756        C  0.24645520  0.01761310  0.28128474    -0.17800
C757        C  0.16233000  0.18143282  0.21082648    -0.16900
C758        C  0.17537120  0.17651096  0.23319605     0.07100
C759        C  0.18593138  0.16590148  0.26004672     0.09000
C760        C  0.19081938  0.15282967  0.28240625    -0.17800
C761        C  0.22141339  0.08512856  0.45576401    -0.16900
C762        C  0.22122320  0.08467537  0.48149297     0.07100
C763        C  0.22126789  0.08461527  0.51163716     0.09000
C764        C  0.22152620  0.08497932  0.53736680    -0.17800
C765        C  0.24672895  0.97222462  0.78124260    -0.16900
C766        C  0.25213943  0.98632191  0.75946814     0.07100
C767        C  0.25221105  0.00324623  0.73353294     0.09000
C768        C  0.24689775  0.01736782  0.71175118    -0.17800
C769        C  0.16239076  0.18116747  0.78236113    -0.16900
C770        C  0.17545900  0.17618816  0.76001363     0.07100
C771        C  0.18607333  0.16553864  0.73318926     0.09000
C772        C  0.19101295  0.15246138  0.71083833    -0.17800
C773        C  0.81823770  0.83727203  0.28226165    -0.16900
C774        C  0.82313771  0.82424505  0.25988248     0.07100
C775        C  0.83369124  0.81367259  0.23301786     0.09000
C776        C  0.84671403  0.80874878  0.21064145    -0.17800
C777        C  0.76249783  0.97237261  0.28124078    -0.16900
C778        C  0.75719363  0.98650572  0.25946188     0.07100
C779        C  0.75722393  0.00345037  0.23353526     0.09000
C780        C  0.76257335  0.01757587  0.21176233    -0.17800
C781        C  0.78766519  0.90475860  0.53728711    -0.16900
C782        C  0.78784096  0.90515616  0.51155628     0.07100
C783        C  0.78778478  0.90514858  0.48141084     0.09000
C784        C  0.78753451  0.90474231  0.45568077    -0.17800
C785        C  0.81819252  0.83702488  0.71067692    -0.16900
C786        C  0.82310320  0.82390831  0.73301282     0.07100
C787        C  0.83370517  0.81323555  0.75983246     0.09000
C788        C  0.84678152  0.80827329  0.78217974    -0.17800
C789        C  0.76254136  0.97228157  0.71176129    -0.16900
C790        C  0.75723149  0.98640941  0.73354538     0.07100
C791        C  0.75724844  0.00333637  0.75948845     0.09000
C792        C  0.76258555  0.01744313  0.78127972    -0.17800
C793        C  0.02703646  0.75314147  0.28122382    -0.16900
C794        C  0.01291123  0.74778168  0.25944756     0.07100
C795        C  0.99597124  0.74770895  0.23351236     0.09000
C796        C  0.98183791  0.75297496  0.21172239    -0.17800
C797        C  0.19064783  0.83729463  0.21063229    -0.16900
C798        C  0.18573610  0.82427608  0.23301042     0.07100
C799        C  0.17516050  0.81374653  0.25987772     0.09000
C800        C  0.16212851  0.80887130  0.28225620    -0.17800
C801        C  0.90474675  0.86779355  0.37472720    -0.16900
C802        C  0.93085354  0.85709574  0.37776249     0.07100
C803        C  0.96135325  0.84369702  0.37799987     0.09000
C804        C  0.98710057  0.83209528  0.37518252    -0.17800
C805        C  0.13164236  0.89538666  0.37469187    -0.16900
C806        C  0.14235951  0.92148586  0.37771757     0.07100
C807        C  0.15578498  0.95197271  0.37795076     0.09000
C808        C  0.16741233  0.97770826  0.37513930    -0.17800
C809        C  0.90482219  0.86760927  0.61836424    -0.16900
C810        C  0.93092262  0.85689219  0.61534961     0.07100
C811        C  0.96141005  0.84346821  0.61512837     0.09000
C812        C  0.98714833  0.83184579  0.61794253    -0.17800
C813        C  0.13170527  0.89513733  0.61841989    -0.16900
C814        C  0.14246338  0.92122475  0.61541281     0.07100
C815        C  0.15595824  0.95168611  0.61518263     0.09000
C816        C  0.16763546  0.97740394  0.61798686    -0.17800
C817        C  0.09464928  0.77807825  0.53726437    -0.16900
C818        C  0.09426167  0.77833027  0.51153539     0.07100
C819        C  0.09429489  0.77835758  0.48139199     0.09000
C820        C  0.09471945  0.77815526  0.45566320    -0.17800
C821        C  0.98201887  0.75254990  0.78119197    -0.16900
C822        C  0.99614910  0.74722941  0.75941270     0.07100
C823        C  0.01308436  0.74725730  0.73347681     0.09000
C824        C  0.02719713  0.75261785  0.71169637    -0.17800
C825        C  0.19082397  0.83717720  0.78224698    -0.16900
C826        C  0.18591098  0.82409370  0.75989534     0.07100
C827        C  0.17532387  0.81345902  0.73305875     0.09000
C828        C  0.16226929  0.80851370  0.71069828    -0.17800
C829        C  0.81837252  0.15258290  0.21080491    -0.16900
C830        C  0.82322490  0.16561975  0.23318713     0.07100
C831        C  0.83372952  0.17620778  0.26006141     0.09000
C832        C  0.84673713  0.18112803  0.28244612    -0.17800
C833        C  0.98177714  0.23696055  0.28128450    -0.16900
C834        C  0.99591868  0.24230333  0.25951611     0.07100
C835        C  0.01290859  0.24234086  0.23360995     0.09000
C836        C  0.02708877  0.23705275  0.21185136    -0.17800
C837        C  0.10422812  0.12223173  0.37473122    -0.16900
C838        C  0.07813136  0.13294994  0.37774609     0.07100
C839        C  0.04764724  0.14636923  0.37796525     0.09000
C840        C  0.02190580  0.15797511  0.37514496    -0.17800
C841        C  0.84152413  0.01228688  0.37517255    -0.16900
C842        C  0.85318272  0.03800681  0.37799184     0.07100
C843        C  0.86665679  0.06847085  0.37776273     0.09000
C844        C  0.87739964  0.09455911  0.37474528    -0.17800
C845        C  0.02212179  0.15776985  0.61803218    -0.16900
C846        C  0.04785127  0.14611915  0.61522260     0.07100
C847        C  0.07833197  0.13266578  0.61545364     0.09000
C848        C  0.10443121  0.12193633  0.61847113    -0.17800
C849        C  0.84178883  0.01220062  0.61805321    -0.16900
C850        C  0.85343254  0.03793923  0.61528552     0.07100
C851        C  0.86686339  0.06843073  0.61555060     0.09000
C852        C  0.87757800  0.09453515  0.61857764    -0.17800
C853        C  0.91452065  0.21162203  0.53741513    -0.16900
C854        C  0.91491528  0.21139887  0.51168320     0.07100
C855        C  0.91489833  0.21142160  0.48153513     0.09000
C856        C  0.91446392  0.21167427  0.45580400    -0.17800
C857        C  0.98214160  0.23701891  0.71183941    -0.16900
C858        C  0.99623893  0.24240284  0.73362531     0.07100
C859        C  0.01314915  0.24245532  0.75957581     0.09000
C860        C  0.02725968  0.23713968  0.78136758    -0.17800
C861        C  0.81843022  0.15253897  0.78239956    -0.16900
C862        C  0.82336528  0.16562221  0.76005488     0.07100
C863        C  0.83398262  0.17624501  0.73322855     0.09000
C864        C  0.84705105  0.18117745  0.71087606    -0.17800
C865        C  0.37225879  0.19057281  0.62989429    -0.16900
C866        C  0.35547845  0.16764883  0.63070810     0.07100
C867        C  0.33195169  0.14403607  0.63072463     0.09000
C868        C  0.30907332  0.12719062  0.62993449    -0.17800
C869        C  0.30884836  0.12742681  0.36318377    -0.16900
C870        C  0.33173943  0.14425359  0.36238879     0.07100
C871        C  0.35529299  0.16783887  0.36239113     0.09000
C872        C  0.37210054  0.19074380  0.36318604    -0.17800
C873        C  0.41440507  0.27826895  0.45572102    -0.16900
C874        C  0.41484889  0.27847527  0.48145043     0.07100
C875        C  0.41490048  0.27842563  0.51159523     0.09000
C876        C  0.41451766  0.27815073  0.53732485    -0.17800
C877        C  0.13697596  0.69051208  0.62974765    -0.16900
C878        C  0.15378702  0.66761458  0.63054542     0.07100
C879        C  0.17735329  0.64404990  0.63056118     0.09000
C880        C  0.20025208  0.62723882  0.62977935    -0.17800
C881        C  0.34159936  0.47747589  0.61784925    -0.16900
C882        C  0.35323689  0.45174494  0.61506217     0.07100
C883        C  0.36669126  0.42127632  0.61532653     0.09000
C884        C  0.37743284  0.39519278  0.61836772    -0.17800
C885        C  0.13686512  0.69075094  0.36295771    -0.16900
C886        C  0.15363849  0.66782117  0.36213691     0.07100
C887        C  0.17715576  0.64419669  0.36213649     0.09000
C888        C  0.20003089  0.62734728  0.36295272    -0.17800
C889        C  0.34158514  0.47767147  0.37496037    -0.16900
C890        C  0.35327027  0.45195777  0.37777388     0.07100
C891        C  0.36675959  0.42149199  0.37755698     0.09000
C892        C  0.37750597  0.39539739  0.37455899    -0.17800
C893        C  0.28764238  0.58496111  0.53720537    -0.16900
C894        C  0.28783874  0.58461236  0.51147293     0.07100
C895        C  0.28781545  0.58470615  0.48132535     0.09000
C896        C  0.28757569  0.58517078  0.45559462    -0.17800
C897        C  0.63706441  0.79910489  0.62992398    -0.16900
C898        C  0.65383330  0.82203964  0.63070927     0.07100
C899        C  0.67733521  0.84567858  0.63068662     0.09000
C900        C  0.70020227  0.86253808  0.62987061    -0.17800
C901        C  0.48715318  0.65790270  0.61782324    -0.16900
C902        C  0.46142397  0.64625928  0.61500611     0.07100
C903        C  0.43095995  0.63278030  0.61523813     0.09000
C904        C  0.40487648  0.62202159  0.61825689    -0.17800
C905        C  0.70010717  0.86257011  0.36301870    -0.16900
C906        C  0.67719066  0.84577722  0.36224630     0.07100
C907        C  0.65360057  0.82223023  0.36230753     0.09000
C908        C  0.63678009  0.79933859  0.36315919    -0.17800
C909        C  0.40467687  0.62219833  0.37451424    -0.16900
C910        C  0.43079531  0.63288026  0.37753208     0.07100
C911        C  0.46130873  0.64625663  0.37776310     0.09000
C912        C  0.48706245  0.65785625  0.37496542    -0.17800
C913        C  0.59453504  0.71172492  0.45572374    -0.16900
C914        C  0.59418827  0.71146424  0.48145408     0.07100
C915        C  0.59428767  0.71143537  0.51159908     0.09000
C916        C  0.59476349  0.71164894  0.53732800    -0.17800
C917        C  0.80904080  0.36246015  0.63012642    -0.16900
C918        C  0.83194708  0.34564948  0.63091415     0.07100
C919        C  0.85552639  0.32208429  0.63087364     0.09000
C920        C  0.87234875  0.29918982  0.63003352    -0.17800
C921        C  0.66755500  0.51216018  0.61793387    -0.16900
C922        C  0.65589459  0.53788330  0.61511875     0.07100
C923        C  0.64242064  0.56835338  0.61534514     0.09000
C924        C  0.63167521  0.59444534  0.61835526    -0.17800
C925        C  0.60439934  0.36760050  0.61839414    -0.16900
C926        C  0.57828964  0.35690699  0.61536703     0.07100
C927        C  0.54778170  0.34352843  0.61513751     0.09000
C928        C  0.52202611  0.33194388  0.61794938    -0.17800
C929        C  0.87202584  0.29918437  0.36328402    -0.16900
C930        C  0.85525455  0.32211170  0.36249781     0.07100
C931        C  0.83174992  0.34573855  0.36250544     0.09000
C932        C  0.80888658  0.36259698  0.36330329    -0.17800
C933        C  0.66750800  0.51241563  0.37510652    -0.16900
C934        C  0.65586330  0.53814961  0.37787881     0.07100
C935        C  0.64241133  0.56862634  0.37761394     0.09000
C936        C  0.63167574  0.59471788  0.37458373    -0.17800
C937        C  0.60427572  0.36789225  0.37474424    -0.16900
C938        C  0.57818129  0.35715199  0.37775063     0.07100
C939        C  0.54771183  0.34367836  0.37796315     0.09000
C940        C  0.52198891  0.33202017  0.37513523    -0.17800
C941        C  0.72158063  0.40460874  0.53744928    -0.16900
C942        C  0.72133900  0.40509098  0.51172161     0.07100
C943        C  0.72130153  0.40521882  0.48157848     0.09000
C944        C  0.72148850  0.40490182  0.45584825    -0.17800
C945        C  0.20043261  0.36248768  0.86315617    -0.16900
C946        C  0.17751608  0.34569594  0.86238690     0.07100
C947        C  0.15392236  0.32215401  0.86241505     0.09000
C948        C  0.13709163  0.29926878  0.86322626    -0.17800
C949        C  0.26260258  0.51744061  0.71169565    -0.16900
C950        C  0.25732921  0.50328503  0.73346932     0.07100
C951        C  0.25739642  0.48631187  0.75938283     0.09000
C952        C  0.26276063  0.47217190  0.78114734    -0.17800
C953        C  0.34691948  0.30858263  0.71070992    -0.16900
C954        C  0.33387768  0.31346518  0.73308225     0.07100
C955        C  0.32331542  0.32402462  0.75994427     0.09000
C956        C  0.31843261  0.33706829  0.78231631    -0.17800
C957        C  0.13691449  0.29945354  0.12997798    -0.16900
C958        C  0.15373943  0.32234687  0.13073734     0.07100
C959        C  0.17732961  0.34589559  0.13067403     0.09000
C960        C  0.20024084  0.36269258  0.12982643    -0.17800
C961        C  0.28797649  0.40481566  0.95565192    -0.16900
C962        C  0.28818575  0.40526631  0.98138057     0.07100
C963        C  0.28814188  0.40531050  0.01152431     0.09000
C964        C  0.28786448  0.40493088  0.03725343    -0.17800
C965        C  0.26232459  0.47249119  0.21164349    -0.16900
C966        C  0.25695917  0.48658553  0.23343099     0.07100
C967        C  0.25694599  0.50349220  0.25937969     0.09000
C968        C  0.26228769  0.51759826  0.28116699    -0.17800
C969        C  0.31829598  0.33747222  0.21072593    -0.16900
C970        C  0.32323112  0.32440524  0.23308065     0.07100
C971        C  0.33383361  0.31377878  0.25991487     0.09000
C972        C  0.34688775  0.30882403  0.28227381    -0.17800
C973        C  0.70037915  0.12717105  0.86325502    -0.16900
C974        C  0.67748004  0.14398491  0.86245546     0.07100
C975        C  0.65391282  0.16755393  0.86244258     0.09000
C976        C  0.63709930  0.19045273  0.86322759    -0.17800
C977        C  0.66250917  0.30854641  0.78246800    -0.16900
C978        C  0.67553419  0.31348906  0.76009769     0.07100
C979        C  0.68606027  0.32410814  0.73324198     0.09000
C980        C  0.69092704  0.33716577  0.71087321    -0.17800
C981        C  0.48205246  0.25292507  0.71179111    -0.16900
C982        C  0.49620779  0.24759019  0.73355705     0.07100
C983        C  0.51318934  0.24755061  0.75947247     0.09000
C984        C  0.52734570  0.25283144  0.78124938    -0.17800
C985        C  0.40507139  0.36768793  0.87462478    -0.16900
C986        C  0.43115294  0.35693815  0.87766449     0.07100
C987        C  0.46161446  0.34346552  0.87791903     0.09000
C988        C  0.48733802  0.33181337  0.87512149    -0.17800
C989        C  0.63690423  0.19058056  0.12999103    -0.16900
C990        C  0.65376004  0.16771186  0.13079195     0.07100
C991        C  0.67738391  0.14419651  0.13078714     0.09000
C992        C  0.70031042  0.12741858  0.12997480    -0.17800
C993        C  0.40489258  0.36799974  0.11845019    -0.16900
C994        C  0.43098253  0.35723875  0.11546591     0.07100
C995        C  0.46144085  0.34373588  0.11526622     0.09000
C996        C  0.48714981  0.33204427  0.11809149    -0.17800
C997        C  0.59468090  0.27809171  0.03741829    -0.16900
C998        C  0.59429131  0.27827777  0.01168401     0.07100
C999        C  0.59431101  0.27821457  0.98153289     0.09000
C1000       C  0.59474270  0.27794504  0.95579994    -0.17800
C1001       C  0.69086690  0.33725756  0.28243734    -0.16900
C1002       C  0.68593161  0.32416718  0.26009136     0.07100
C1003       C  0.67531365  0.31352248  0.23326481     0.09000
C1004       C  0.66223686  0.30856399  0.21091529    -0.17800
C1005       C  0.52703897  0.25266229  0.21181174    -0.16900
C1006       C  0.51290995  0.24733863  0.23358818     0.07100
C1007       C  0.49598389  0.24739877  0.25952471     0.09000
C1008       C  0.48188785  0.25280185  0.28130282    -0.17800
C1009       C  0.80879562  0.62722991  0.86313674    -0.16900
C1010       C  0.83174753  0.64396972  0.86230156     0.07100
C1011       C  0.85540277  0.66745007  0.86227621     0.09000
C1012       C  0.87226831  0.69031048  0.86306771    -0.17800
C1013       C  0.69065152  0.65246884  0.78238884    -0.16900
C1014       C  0.68575757  0.66548175  0.76000316     0.07100
C1015       C  0.67522173  0.67603517  0.73312776     0.09000
C1016       C  0.66221980  0.68094407  0.71073792    -0.17800
C1017       C  0.74645999  0.51745588  0.78138710    -0.16900
C1018       C  0.75180850  0.50335211  0.75959997     0.07100
C1019       C  0.75185451  0.48642996  0.73365764     0.09000
C1020       C  0.74657202  0.47230039  0.71186998    -0.17800
C1021       C  0.63183306  0.39507692  0.87481299    -0.16900
C1022       C  0.64251964  0.42118589  0.87784913     0.07100
C1023       C  0.65590015  0.45169019  0.87809579     0.09000
C1024       C  0.66748476  0.47744487  0.87529221    -0.17800
C1025       C  0.80882922  0.62724377  0.12994197    -0.16900
C1026       C  0.83172092  0.64406830  0.13073255     0.07100
C1027       C  0.85525571  0.66766959  0.13072171     0.09000
C1028       C  0.87203583  0.69059205  0.12990843    -0.17800
C1029       C  0.66728690  0.47758449  0.11820725    -0.16900
C1030       C  0.65567167  0.45183799  0.11541691     0.07100
C1031       C  0.64228502  0.42133097  0.11565056     0.09000
C1032       C  0.63160791  0.39521139  0.11865670    -0.17800
C1033       C  0.72131222  0.58507156  0.95582504    -0.16900
C1034       C  0.72106032  0.58465507  0.98155485     0.07100
C1035       C  0.72102794  0.58463415  0.01170034     0.09000
C1036       C  0.72123868  0.58502824  0.03743083    -0.17800
C1037       C  0.66223464  0.68140759  0.28232569    -0.16900
C1038       C  0.67532591  0.67649154  0.25998138     0.07100
C1039       C  0.68594925  0.66587286  0.23315570     0.09000
C1040       C  0.69086827  0.65278427  0.21080991    -0.17800
C1041       C  0.74657926  0.51762035  0.21191490    -0.16900
C1042       C  0.75195722  0.50350361  0.23368978     0.07100
C1043       C  0.75201904  0.48656180  0.25962138     0.09000
C1044       C  0.74672288  0.47242796  0.28140267    -0.17800
C1045       C  0.37209943  0.79922101  0.86299626    -0.16900
C1046       C  0.35528910  0.82212306  0.86221748     0.07100
C1047       C  0.33172603  0.84569727  0.86226331     0.09000
C1048       C  0.30883051  0.86251423  0.86310300    -0.17800
C1049       C  0.52726407  0.73682556  0.71178580    -0.16900
C1050       C  0.51314717  0.74217651  0.73356394     0.07100
C1051       C  0.49619181  0.74221623  0.75948571     0.09000
C1052       C  0.48203348  0.73691952  0.78125235    -0.17800
C1053       C  0.34684862  0.68110765  0.78219961    -0.16900
C1054       C  0.33381252  0.67619118  0.75982472     0.07100
C1055       C  0.32323648  0.66562297  0.73296262     0.09000
C1056       C  0.31832189  0.65258855  0.71058786    -0.17800
C1057       C  0.52186783  0.65786319  0.87516049    -0.16900
C1058       C  0.54758950  0.64621178  0.87800129     0.07100
C1059       C  0.57805964  0.63274738  0.87779901     0.09000
C1060       C  0.60415113  0.62200378  0.87479671    -0.17800
C1061       C  0.37743188  0.59460388  0.87460366    -0.16900
C1062       C  0.36676239  0.56848607  0.87761407     0.07100
C1063       C  0.35339612  0.53797709  0.87782654     0.09000
C1064       C  0.34180940  0.51222679  0.87500278    -0.17800
C1065       C  0.30873264  0.86265134  0.12980703    -0.16900
C1066       C  0.33166760  0.84588511  0.13058704     0.07100
C1067       C  0.35529964  0.82238090  0.13057521     0.09000
C1068       C  0.37215687  0.79951474  0.12977882    -0.17800
C1069       C  0.52189956  0.65804272  0.11798827    -0.16900
C1070       C  0.54762634  0.64638026  0.11521427     0.07100
C1071       C  0.57809660  0.63291137  0.11548444     0.09000
C1072       C  0.60418529  0.62216963  0.11852748    -0.17800
C1073       C  0.37732700  0.59489556  0.11833949    -0.16900
C1074       C  0.36660914  0.56879216  0.11532868     0.07100
C1075       C  0.35318423  0.53830087  0.11510243     0.09000
C1076       C  0.34156445  0.51255792  0.11790632    -0.17800
C1077       C  0.41442341  0.71197899  0.03725183    -0.16900
C1078       C  0.41479352  0.71172090  0.01152159     0.07100
C1079       C  0.41473908  0.71167126  0.98137640     0.09000
C1080       C  0.41430272  0.71185281  0.95564647    -0.17800
C1081       C  0.52707926  0.73712884  0.28125026    -0.16900
C1082       C  0.51297812  0.74249796  0.25946181     0.07100
C1083       C  0.49605912  0.74255618  0.23351234     0.09000
C1084       C  0.48193747  0.73726603  0.21171848    -0.17800
C1085       C  0.34674548  0.68147450  0.21065261    -0.16900
C1086       C  0.33366575  0.67651017  0.23299566     0.07100
C1087       C  0.32304336  0.66585217  0.25981231     0.09000
C1088       C  0.31810291  0.65275622  0.28215227    -0.17800
loop_ 
_geom_bond_atom_site_label_1 
_geom_bond_atom_site_label_2 
_geom_bond_distance 
_geom_bond_site_symmetry_2 
_ccdc_geom_bond_type 
Fe1          O17   2.073       .  S
Fe1           O7   2.059       .  S
Fe1          O14   2.070       .  S
Fe1           O6   2.068       .  S
Fe1          O12   1.985       .  S
Fe2           O5   2.059       .  S
Fe2           O9   2.060       .  S
Fe2          O13   2.067       .  S
Fe2          O18   2.062       .  S
Fe2          O12   1.978       .  S
Fe3          O21   2.075       .  S
Fe3           O8   2.081       .  S
Fe3          O15   2.081       .  S
Fe3           O4   2.073       .  S
Fe3          O12   1.988       .  S
O4           C11   1.271       .  A
O5           C19   1.266       .  A
O6           C11   1.270       .  A
O7           C10   1.264       .  A
O8           C20   1.270       .  A
O9           C22   1.268       .  A
C10          O15   1.268       .  A
C10        C1068   1.443       .  S
C11        C1077   1.437       .  S
O13          C16   1.266       .  A
O14          C16   1.266       .  A
C16        C1073   1.442       .  S
O17          C22   1.270       .  A
O18          C20   1.267       .  A
C19          O21   1.269       .  A
C19        C1084   1.437       .  S
C20        C1069   1.442       .  S
C22        C1085   1.434       .  S
Fe23         O39   2.070       .  S
Fe23         O29   2.068       .  S
Fe23         O36   2.073       .  S
Fe23         O28   2.059       .  S
Fe23         O34   1.985       .  S
Fe24         O27   2.062       .  S
Fe24         O31   2.066       .  S
Fe24         O35   2.060       .  S
Fe24         O40   2.059       .  S
Fe24         O34   1.978       .  S
Fe25         O43   2.081       .  S
Fe25         O30   2.075       .  S
Fe25         O37   2.073       .  S
Fe25         O26   2.080       .  S
Fe25         O34   1.988       .  S
O26          C33   1.268       .  A
O27          C41   1.267       .  A
O28          C33   1.264       .  A
O29          C32   1.270       .  A
O30          C42   1.269       .  A
O31          C44   1.266       .  A
C32          O37   1.271       .  A
C32        C1080   1.437       .  S
C33        C1045   1.443       .  S
O35          C38   1.268       .  A
O36          C38   1.270       .  A
C38        C1053   1.434       .  S
O39          C44   1.266       .  A
O40          C42   1.266       .  A
C41          O43   1.270       .  A
C41        C1057   1.442       .  S
C42        C1052   1.437       .  S
C44        C1061   1.441       .  S
Fe45         O61   2.073       .  S
Fe45         O51   2.059       .  S
Fe45         O58   2.070       .  S
Fe45         O50   2.068       .  S
Fe45         O56   1.985       .  S
Fe46         O49   2.060       .  S
Fe46         O53   2.060       .  S
Fe46         O57   2.067       .  S
Fe46         O62   2.062       .  S
Fe46         O56   1.978       .  S
Fe47         O65   2.075       .  S
Fe47         O52   2.081       .  S
Fe47         O59   2.080       .  S
Fe47         O48   2.073       .  S
Fe47         O56   1.988       .  S
O48          C55   1.271       .  A
O49          C63   1.266       .  A
O50          C55   1.270       .  A
O51          C54   1.264       .  A
O52          C64   1.270       .  A
O53          C66   1.268       .  A
C54          O59   1.268       .  A
C54        C1025   1.442       .  S
C55        C1036   1.437       .  S
O57          C60   1.266       .  A
O58          C60   1.266       .  A
C60        C1072   1.442       .  S
O61          C66   1.269       .  A
O62          C64   1.267       .  A
C63          O65   1.269       .  A
C63        C1041   1.437       .  S
C64        C1029   1.442       .  S
C66        C1040   1.434       .  S
Fe67         O83   2.070       .  S
Fe67         O73   2.068       .  S
Fe67         O80   2.073       .  S
Fe67         O72   2.059       .  S
Fe67         O78   1.985       .  S
Fe68         O71   2.062       .  S
Fe68         O75   2.067       .  S
Fe68         O79   2.060       .  S
Fe68         O84   2.059       .  S
Fe68         O78   1.978       .  S
Fe69         O87   2.081       .  S
Fe69         O74   2.075       .  S
Fe69         O81   2.073       .  S
Fe69         O70   2.080       .  S
Fe69         O78   1.988       .  S
O70          C77   1.268       .  A
O71          C85   1.267       .  A
O72          C77   1.264       .  A
O73          C76   1.270       .  A
O74          C86   1.269       .  A
O75          C88   1.266       .  A
C76          O81   1.271       .  A
C76        C1033   1.437       .  S
C77        C1009   1.443       .  S
O79          C82   1.268       .  A
O80          C82   1.269       .  A
C82        C1013   1.434       .  S
O83          C88   1.266       .  A
O84          C86   1.266       .  A
C85          O87   1.270       .  A
C85        C1024   1.441       .  S
C86        C1017   1.437       .  S
C88        C1060   1.442       .  S
Fe89        O105   2.073       .  S
Fe89         O95   2.059       .  S
Fe89        O102   2.070       .  S
Fe89         O94   2.069       .  S
Fe89        O100   1.985       .  S
Fe90         O93   2.059       .  S
Fe90         O97   2.060       .  S
Fe90        O101   2.067       .  S
Fe90        O106   2.062       .  S
Fe90        O100   1.978       .  S
Fe91        O109   2.075       .  S
Fe91         O96   2.081       .  S
Fe91        O103   2.081       .  S
Fe91         O92   2.073       .  S
Fe91        O100   1.988       .  S
O92          C99   1.271       .  A
O93         C107   1.266       .  A
O94          C99   1.270       .  A
O95          C98   1.264       .  A
O96         C108   1.270       .  A
O97         C110   1.268       .  A
C98         O103   1.268       .  A
C98         C989   1.443       .  S
C99         C997   1.437       .  S
O101        C104   1.266       .  A
O102        C104   1.266       .  A
C104       C1032   1.442       .  S
O105        C110   1.270       .  A
O106        C108   1.267       .  A
C107        O109   1.269       .  A
C107       C1005   1.437       .  S
C108        C996   1.442       .  S
C110       C1004   1.435       .  S
Fe111       O127   2.070       .  S
Fe111       O117   2.068       .  S
Fe111       O124   2.073       .  S
Fe111       O116   2.059       .  S
Fe111       O122   1.985       .  S
Fe112       O115   2.062       .  S
Fe112       O119   2.066       .  S
Fe112       O123   2.060       .  S
Fe112       O128   2.059       .  S
Fe112       O122   1.978       .  S
Fe113       O131   2.081       .  S
Fe113       O118   2.075       .  S
Fe113       O125   2.074       .  S
Fe113       O114   2.080       .  S
Fe113       O122   1.988       .  S
O114        C121   1.268       .  A
O115        C129   1.267       .  A
O116        C121   1.264       .  A
O117        C120   1.270       .  A
O118        C130   1.269       .  A
O119        C132   1.266       .  A
C120        O125   1.271       .  A
C120       C1000   1.437       .  S
C121        C976   1.443       .  S
O123        C126   1.268       .  A
O124        C126   1.270       .  A
C126        C977   1.434       .  S
O127        C132   1.266       .  A
O128        C130   1.266       .  A
C129        O131   1.270       .  A
C129        C988   1.441       .  S
C130        C984   1.437       .  S
C132       C1021   1.441       .  S
Fe133       O149   2.073       .  S
Fe133       O139   2.059       .  S
Fe133       O146   2.070       .  S
Fe133       O138   2.068       .  S
Fe133       O144   1.985       .  S
Fe134       O137   2.059       .  S
Fe134       O141   2.060       .  S
Fe134       O145   2.067       .  S
Fe134       O150   2.062       .  S
Fe134       O144   1.978       .  S
Fe135       O153   2.075       .  S
Fe135       O140   2.081       .  S
Fe135       O147   2.080       .  S
Fe135       O136   2.073       .  S
Fe135       O144   1.988       .  S
O136        C143   1.271       .  A
O137        C151   1.266       .  A
O138        C143   1.270       .  A
O139        C142   1.264       .  A
O140        C152   1.270       .  A
O141        C154   1.268       .  A
C142        O147   1.268       .  A
C142        C960   1.443       .  S
C143        C964   1.437       .  S
O145        C148   1.266       .  A
O146        C148   1.266       .  A
C148        C993   1.442       .  S
O149        C154   1.270       .  A
O150        C152   1.267       .  A
C151        O153   1.269       .  A
C151        C965   1.437       .  S
C152       C1076   1.442       .  S
C154        C969   1.434       .  S
Fe155       O171   2.070       .  S
Fe155       O161   2.068       .  S
Fe155       O168   2.073       .  S
Fe155       O160   2.059       .  S
Fe155       O166   1.984       .  S
Fe156       O159   2.062       .  S
Fe156       O163   2.067       .  S
Fe156       O167   2.060       .  S
Fe156       O172   2.059       .  S
Fe156       O166   1.978       .  S
Fe157       O175   2.081       .  S
Fe157       O162   2.075       .  S
Fe157       O169   2.073       .  S
Fe157       O158   2.080       .  S
Fe157       O166   1.988       .  S
O158        C165   1.268       .  A
O159        C173   1.267       .  A
O160        C165   1.264       .  A
O161        C164   1.270       .  A
O162        C174   1.269       .  A
O163        C176   1.266       .  A
C164        O169   1.271       .  A
C164        C961   1.437       .  S
C165        C945   1.442       .  S
O167        C170   1.268       .  A
O168        C170   1.270       .  A
C170        C956   1.434       .  S
O171        C176   1.266       .  A
O172        C174   1.266       .  A
C173        O175   1.270       .  A
C173       C1064   1.441       .  S
C174        C952   1.437       .  S
C176        C985   1.441       .  S
Fe177       O193   2.073       .  S
Fe177       O183   2.059       .  S
Fe177       O190   2.070       .  S
Fe177       O182   2.068       .  S
Fe177       O188   1.985       .  S
Fe178       O181   2.059       .  S
Fe178       O185   2.060       .  S
Fe178       O189   2.067       .  S
Fe178       O194   2.062       .  S
Fe178       O188   1.978       .  S
Fe179       O197   2.075       .  S
Fe179       O184   2.081       .  S
Fe179       O191   2.081       .  S
Fe179       O180   2.073       .  S
Fe179       O188   1.988       .  S
O180        C187   1.271       .  A
O181        C195   1.266       .  A
O182        C187   1.270       .  A
O183        C186   1.264       .  A
O184        C196   1.270       .  A
O185        C198   1.268       .  A
C186        O191   1.268       .  A
C186        C932   1.442       .  S
C187        C944   1.437       .  S
O189        C192   1.266       .  A
O190        C192   1.266       .  A
C192        C937   1.442       .  S
O193        C198   1.270       .  A
O194        C196   1.267       .  A
C195        O197   1.269       .  A
C195       C1044   1.437       .  S
C196        C933   1.442       .  S
C198       C1001   1.435       .  S
Fe199       O215   2.070       .  S
Fe199       O205   2.068       .  S
Fe199       O212   2.073       .  S
Fe199       O204   2.059       .  S
Fe199       O210   1.985       .  S
Fe200       O203   2.062       .  S
Fe200       O207   2.066       .  S
Fe200       O211   2.060       .  S
Fe200       O216   2.059       .  S
Fe200       O210   1.978       .  S
Fe201       O219   2.081       .  S
Fe201       O206   2.075       .  S
Fe201       O213   2.073       .  S
Fe201       O202   2.081       .  S
Fe201       O210   1.988       .  S
O202        C209   1.268       .  A
O203        C217   1.267       .  A
O204        C209   1.264       .  A
O205        C208   1.270       .  A
O206        C218   1.269       .  A
O207        C220   1.266       .  A
C208        O213   1.271       .  A
C208        C941   1.437       .  S
C209        C917   1.443       .  S
O211        C214   1.268       .  A
O212        C214   1.269       .  A
C214        C980   1.434       .  S
O215        C220   1.266       .  A
O216        C218   1.266       .  A
C217        O219   1.270       .  A
C217        C921   1.442       .  S
C218       C1020   1.437       .  S
C220        C925   1.442       .  S
Fe221       O237   2.073       .  S
Fe221       O227   2.059       .  S
Fe221       O234   2.070       .  S
Fe221       O226   2.068       .  S
Fe221       O232   1.985       .  S
Fe222       O225   2.060       .  S
Fe222       O229   2.060       .  S
Fe222       O233   2.067       .  S
Fe222       O238   2.062       .  S
Fe222       O232   1.978       .  S
Fe223       O241   2.075       .  S
Fe223       O228   2.081       .  S
Fe223       O235   2.080       .  S
Fe223       O224   2.073       .  S
Fe223       O232   1.988       .  S
O224        C231   1.271       .  A
O225        C239   1.266       .  A
O226        C231   1.270       .  A
O227        C230   1.264       .  A
O228        C240   1.270       .  A
O229        C242   1.268       .  A
C230        O235   1.268       .  A
C230        C908   1.443       .  S
C231        C913   1.437       .  S
O233        C236   1.266       .  A
O234        C236   1.266       .  A
C236        C936   1.442       .  S
O237        C242   1.269       .  A
O238        C240   1.267       .  A
C239        O241   1.269       .  A
C239       C1081   1.437       .  S
C240        C912   1.442       .  S
C242       C1037   1.434       .  S
Fe243       O259   2.070       .  S
Fe243       O249   2.068       .  S
Fe243       O256   2.073       .  S
Fe243       O248   2.059       .  S
Fe243       O254   1.984       .  S
Fe244       O247   2.062       .  S
Fe244       O251   2.067       .  S
Fe244       O255   2.060       .  S
Fe244       O260   2.059       .  S
Fe244       O254   1.978       .  S
Fe245       O263   2.081       .  S
Fe245       O250   2.075       .  S
Fe245       O257   2.073       .  S
Fe245       O246   2.080       .  S
Fe245       O254   1.988       .  S
O246        C253   1.268       .  A
O247        C261   1.267       .  A
O248        C253   1.264       .  A
O249        C252   1.271       .  A
O250        C262   1.269       .  A
O251        C264   1.266       .  A
C252        O257   1.271       .  A
C252        C916   1.437       .  S
C253        C897   1.443       .  S
O255        C258   1.268       .  A
O256        C258   1.270       .  A
C258       C1016   1.434       .  S
O259        C264   1.266       .  A
O260        C262   1.266       .  A
C261        O263   1.270       .  A
C261        C901   1.442       .  S
C262       C1049   1.437       .  S
C264        C924   1.442       .  S
Fe265       O281   2.073       .  S
Fe265       O271   2.059       .  S
Fe265       O278   2.070       .  S
Fe265       O270   2.069       .  S
Fe265       O276   1.985       .  S
Fe266       O269   2.059       .  S
Fe266       O273   2.060       .  S
Fe266       O277   2.067       .  S
Fe266       O282   2.062       .  S
Fe266       O276   1.978       .  S
Fe267       O285   2.075       .  S
Fe267       O272   2.082       .  S
Fe267       O279   2.081       .  S
Fe267       O268   2.073       .  S
Fe267       O276   1.988       .  S
O268        C275   1.271       .  A
O269        C283   1.266       .  A
O270        C275   1.270       .  A
O271        C274   1.264       .  A
O272        C284   1.270       .  A
O273        C286   1.268       .  A
C274        O279   1.268       .  A
C274        C888   1.443       .  S
C275        C896   1.437       .  S
O277        C280   1.266       .  A
O278        C280   1.266       .  A
C280        C909   1.442       .  S
O281        C286   1.270       .  A
O282        C284   1.267       .  A
C283        O285   1.269       .  A
C283        C968   1.437       .  S
C284        C889   1.442       .  S
C286       C1088   1.435       .  S
Fe287       O303   2.070       .  S
Fe287       O293   2.068       .  S
Fe287       O300   2.073       .  S
Fe287       O292   2.059       .  S
Fe287       O298   1.985       .  S
Fe288       O291   2.062       .  S
Fe288       O295   2.067       .  S
Fe288       O299   2.060       .  S
Fe288       O304   2.059       .  S
Fe288       O298   1.978       .  S
Fe289       O307   2.081       .  S
Fe289       O294   2.075       .  S
Fe289       O301   2.074       .  S
Fe289       O290   2.080       .  S
Fe289       O298   1.988       .  S
O290        C297   1.268       .  A
O291        C305   1.267       .  A
O292        C297   1.264       .  A
O293        C296   1.270       .  A
O294        C306   1.269       .  A
O295        C308   1.266       .  A
C296        O301   1.271       .  A
C296        C893   1.437       .  S
C297        C880   1.442       .  S
O299        C302   1.268       .  A
O300        C302   1.270       .  A
C302       C1056   1.434       .  S
O303        C308   1.266       .  A
O304        C306   1.266       .  A
C305        O307   1.270       .  A
C305        C881   1.441       .  S
C306        C949   1.437       .  S
C308        C904   1.442       .  S
Fe309       O325   2.073       .  S
Fe309       O315   2.059       .  S
Fe309       O322   2.070       .  S
Fe309       O314   2.069       .  S
Fe309       O320   1.984       .  S
Fe310       O313   2.060       .  S
Fe310       O317   2.060       .  S
Fe310       O321   2.067       .  S
Fe310       O326   2.062       .  S
Fe310       O320   1.978       .  S
Fe311       O329   2.075       .  S
Fe311       O316   2.081       .  S
Fe311       O323   2.080       .  S
Fe311       O312   2.073       .  S
Fe311       O320   1.988       .  S
O312        C319   1.271       .  A
O313        C327   1.266       .  A
O314        C319   1.270       .  A
O315        C318   1.264       .  A
O316        C328   1.270       .  A
O317        C330   1.268       .  A
C318        O323   1.268       .  A
C318        C872   1.443       .  S
C319        C873   1.437       .  S
O321        C324   1.266       .  A
O322        C324   1.266       .  A
C324        C892   1.442       .  S
O325        C330   1.270       .  A
O326        C328   1.267       .  A
C327        O329   1.269       .  A
C327       C1008   1.437       .  S
C328        C940   1.442       .  S
C330        C972   1.434       .  S
Fe331       O347   2.070       .  S
Fe331       O337   2.068       .  S
Fe331       O344   2.073       .  S
Fe331       O336   2.059       .  S
Fe331       O342   1.985       .  S
Fe332       O335   2.062       .  S
Fe332       O339   2.067       .  S
Fe332       O343   2.060       .  S
Fe332       O348   2.059       .  S
Fe332       O342   1.978       .  S
Fe333       O351   2.081       .  S
Fe333       O338   2.075       .  S
Fe333       O345   2.074       .  S
Fe333       O334   2.080       .  S
Fe333       O342   1.988       .  S
O334        C341   1.268       .  A
O335        C349   1.267       .  A
O336        C341   1.264       .  A
O337        C340   1.270       .  A
O338        C350   1.269       .  A
O339        C352   1.266       .  A
C340        O345   1.271       .  A
C340        C876   1.437       .  S
C341        C865   1.443       .  S
O343        C346   1.268       .  A
O344        C346   1.269       .  A
C346        C953   1.434       .  S
O347        C352   1.266       .  A
O348        C350   1.266       .  A
C349        O351   1.270       .  A
C349        C928   1.442       .  S
C350        C981   1.437       .  S
C352        C884   1.441       .  S
Fe353       O369   2.073       .  S
Fe353       O359   2.059       .  S
Fe353       O366   2.070       .  S
Fe353       O358   2.068       .  S
Fe353       O364   1.985       .  S
Fe354       O357   2.059       .  S
Fe354       O361   2.060       .  S
Fe354       O365   2.067       .  S
Fe354       O370   2.062       .  S
Fe354       O364   1.978       .  S
Fe355       O373   2.075       .  S
Fe355       O360   2.081       .  S
Fe355       O367   2.081       .  S
Fe355       O356   2.073       .  S
Fe355       O364   1.988       .  S
O356        C363   1.271       .  A
O357        C371   1.266       .  A
O358        C363   1.270       .  A
O359        C362   1.264       .  A
O360        C372   1.270       .  A
O361        C374   1.268       .  A
C362        O367   1.268       .  A
C362        C920   1.443       .  S
C363        C853   1.437       .  S
O365        C368   1.266       .  A
O366        C368   1.266       .  A
C368        C852   1.442       .  S
O369        C374   1.269       .  A
O370        C372   1.267       .  A
C371        O373   1.269       .  A
C371        C857   1.437       .  S
C372        C845   1.442   1_655  S
C374        C864   1.434       .  S
Fe375       O391   2.070       .  S
Fe375       O381   2.068       .  S
Fe375       O388   2.073       .  S
Fe375       O380   2.059       .  S
Fe375       O386   1.985       .  S
Fe376       O379   2.062       .  S
Fe376       O383   2.067       .  S
Fe376       O387   2.060       .  S
Fe376       O392   2.059       .  S
Fe376       O386   1.978       .  S
Fe377       O395   2.081       .  S
Fe377       O382   2.075       .  S
Fe377       O389   2.074       .  S
Fe377       O378   2.080       .  S
Fe377       O386   1.988       .  S
O378        C385   1.268       .  A
O379        C393   1.267       .  A
O380        C385   1.264       .  A
O381        C384   1.270       .  A
O382        C394   1.269       .  A
O383        C396   1.266       .  A
C384        O389   1.271       .  A
C384        C856   1.437       .  S
C385        C929   1.442       .  S
O387        C390   1.268       .  A
O388        C390   1.270       .  A
C390        C832   1.434       .  S
O391        C396   1.266       .  A
O392        C394   1.266       .  A
C393        O395   1.270       .  A
C393        C840   1.441   1_655  S
C394        C833   1.437       .  S
C396        C844   1.442       .  S
Fe397       O413   2.073       .  S
Fe397       O403   2.059       .  S
Fe397       O410   2.070       .  S
Fe397       O402   2.068       .  S
Fe397       O408   1.985       .  S
Fe398       O401   2.060       .  S
Fe398       O405   2.060       .  S
Fe398       O409   2.067       .  S
Fe398       O414   2.062       .  S
Fe398       O408   1.978       .  S
Fe399       O417   2.075       .  S
Fe399       O404   2.081       .  S
Fe399       O411   2.080       .  S
Fe399       O400   2.073       .  S
Fe399       O408   1.988       .  S
O400        C407   1.271       .  A
O401        C415   1.266       .  A
O402        C407   1.270       .  A
O403        C406   1.264       .  A
O404        C416   1.270       .  A
O405        C418   1.268       .  A
C406        O411   1.268       .  A
C406        C877   1.442       .  S
C407        C817   1.437       .  S
O409        C412   1.266       .  A
O410        C412   1.266       .  A
C412        C813   1.442       .  S
O413        C418   1.270       .  A
O414        C416   1.267       .  A
C415        O417   1.269       .  A
C415        C824   1.437       .  S
C416        C812   1.442   1_455  S
C418        C828   1.434       .  S
Fe419       O435   2.070       .  S
Fe419       O425   2.068       .  S
Fe419       O432   2.073       .  S
Fe419       O424   2.059       .  S
Fe419       O430   1.985       .  S
Fe420       O423   2.062       .  S
Fe420       O427   2.067       .  S
Fe420       O431   2.060       .  S
Fe420       O436   2.059       .  S
Fe420       O430   1.978       .  S
Fe421       O439   2.081       .  S
Fe421       O426   2.075       .  S
Fe421       O433   2.073       .  S
Fe421       O422   2.080       .  S
Fe421       O430   1.988       .  S
O422        C429   1.268       .  A
O423        C437   1.267       .  A
O424        C429   1.264       .  A
O425        C428   1.270       .  A
O426        C438   1.269       .  A
O427        C440   1.266       .  A
C428        O433   1.271       .  A
C428        C820   1.437       .  S
C429        C885   1.443       .  S
O431        C434   1.268       .  A
O432        C434   1.269       .  A
C434        C800   1.434       .  S
O435        C440   1.266       .  A
O436        C438   1.266       .  A
C437        O439   1.270       .  A
C437        C804   1.442   1_455  S
C438        C793   1.437       .  S
C440        C805   1.442       .  S
Fe441       O457   2.073       .  S
Fe441       O447   2.059       .  S
Fe441       O454   2.070       .  S
Fe441       O446   2.068       .  S
Fe441       O452   1.985       .  S
Fe442       O445   2.059       .  S
Fe442       O449   2.060       .  S
Fe442       O453   2.067       .  S
Fe442       O458   2.062       .  S
Fe442       O452   1.978       .  S
Fe443       O461   2.075       .  S
Fe443       O448   2.081       .  S
Fe443       O455   2.081       .  S
Fe443       O444   2.073       .  S
Fe443       O452   1.988       .  S
O444        C451   1.271       .  A
O445        C459   1.266       .  A
O446        C451   1.270       .  A
O447        C450   1.264       .  A
O448        C460   1.270       .  A
O449        C462   1.268       .  A
C450        O455   1.268       .  A
C450        C900   1.443       .  S
C451        C781   1.437       .  S
O453        C456   1.266       .  A
O454        C456   1.266       .  A
C456        C809   1.442       .  S
O457        C462   1.270       .  A
O458        C460   1.267       .  A
C459        O461   1.269       .  A
C459        C789   1.437       .  S
C460        C849   1.442   1_565  S
C462        C785   1.435       .  S
Fe463       O479   2.070       .  S
Fe463       O469   2.068       .  S
Fe463       O476   2.073       .  S
Fe463       O468   2.059       .  S
Fe463       O474   1.985       .  S
Fe464       O467   2.062       .  S
Fe464       O471   2.067       .  S
Fe464       O475   2.060       .  S
Fe464       O480   2.059       .  S
Fe464       O474   1.978       .  S
Fe465       O483   2.081       .  S
Fe465       O470   2.075       .  S
Fe465       O477   2.073       .  S
Fe465       O466   2.080       .  S
Fe465       O474   1.988       .  S
O466        C473   1.268       .  A
O467        C481   1.267       .  A
O468        C473   1.264       .  A
O469        C472   1.270       .  A
O470        C482   1.269       .  A
O471        C484   1.266       .  A
C472        O477   1.271       .  A
C472        C784   1.437       .  S
C473        C905   1.443       .  S
O475        C478   1.268       .  A
O476        C478   1.270       .  A
C478        C773   1.434       .  S
O479        C484   1.266       .  A
O480        C482   1.266       .  A
C481        O483   1.270       .  A
C481        C841   1.442   1_565  S
C482        C777   1.437       .  S
C484        C801   1.442       .  S
Fe485       O501   2.073       .  S
Fe485       O491   2.059       .  S
Fe485       O498   2.070       .  S
Fe485       O490   2.068       .  S
Fe485       O496   1.985       .  S
Fe486       O489   2.059       .  S
Fe486       O493   2.060       .  S
Fe486       O497   2.067       .  S
Fe486       O502   2.062       .  S
Fe486       O496   1.978       .  S
Fe487       O505   2.074       .  S
Fe487       O492   2.081       .  S
Fe487       O499   2.081       .  S
Fe487       O488   2.073       .  S
Fe487       O496   1.988       .  S
O488        C495   1.271       .  A
O489        C503   1.266       .  A
O490        C495   1.270       .  A
O491        C494   1.264       .  A
O492        C504   1.270       .  A
O493        C506   1.268       .  A
C494        O499   1.268       .  A
C494        C868   1.443       .  S
C495        C764   1.437       .  S
O497        C500   1.266       .  A
O498        C500   1.266       .  A
C500        C848   1.442       .  S
O501        C506   1.270       .  A
O502        C504   1.267       .  A
C503        O505   1.269       .  A
C503        C768   1.437       .  S
C504        C816   1.442   1_545  S
C506        C772   1.435       .  S
Fe507       O523   2.070       .  S
Fe507       O513   2.068       .  S
Fe507       O520   2.073       .  S
Fe507       O512   2.059       .  S
Fe507       O518   1.985       .  S
Fe508       O511   2.062       .  S
Fe508       O515   2.066       .  S
Fe508       O519   2.060       .  S
Fe508       O524   2.059       .  S
Fe508       O518   1.978       .  S
Fe509       O527   2.081       .  S
Fe509       O514   2.075       .  S
Fe509       O521   2.073       .  S
Fe509       O510   2.080       .  S
Fe509       O518   1.988       .  S
O510        C517   1.268       .  A
O511        C525   1.267       .  A
O512        C517   1.264       .  A
O513        C516   1.270       .  A
O514        C526   1.269       .  A
O515        C528   1.266       .  A
C516        O521   1.271       .  A
C516        C761   1.437       .  S
C517        C869   1.443       .  S
O519        C522   1.268       .  A
O520        C522   1.270       .  A
C522        C760   1.434       .  S
O523        C528   1.266       .  A
O524        C526   1.266       .  A
C525        O527   1.270       .  A
C525        C808   1.442   1_545  S
C526        C756   1.437       .  S
C528        C837   1.441       .  S
Fe529       O545   2.070       .  S
Fe529       O535   2.068       .  S
Fe529       O542   2.073       .  S
Fe529       O534   2.059       .  S
Fe529       O540   1.985       .  S
Fe530       O533   2.062       .  S
Fe530       O537   2.067       .  S
Fe530       O541   2.060       .  S
Fe530       O546   2.059       .  S
Fe530       O540   1.978       .  S
Fe531       O549   2.081       .  S
Fe531       O536   2.075       .  S
Fe531       O543   2.073       .  S
Fe531       O532   2.080       .  S
Fe531       O540   1.988       .  S
O532        C539   1.268       .  A
O533        C547   1.267       .  A
O534        C539   1.264       .  A
O535        C538   1.270       .  A
O536        C548   1.269       .  A
O537        C550   1.266       .  A
C538        O543   1.271       .  A
C538        C749   1.437       .  S
C539        C992   1.443       .  S
O541        C544   1.268       .  A
O542        C544   1.269       .  A
C544        C829   1.434       .  S
O545        C550   1.266       .  A
O546        C548   1.266       .  A
C547        O549   1.270       .  A
C547        C744   1.442   1_545  S
C548        C780   1.437       .  S
C550        C745   1.442       .  S
Fe551       O567   2.073       .  S
Fe551       O557   2.059       .  S
Fe551       O564   2.070       .  S
Fe551       O556   2.068       .  S
Fe551       O562   1.985       .  S
Fe552       O555   2.060       .  S
Fe552       O559   2.060       .  S
Fe552       O563   2.067       .  S
Fe552       O568   2.062       .  S
Fe552       O562   1.978       .  S
Fe553       O571   2.075       .  S
Fe553       O558   2.081       .  S
Fe553       O565   2.081       .  S
Fe553       O554   2.073       .  S
Fe553       O562   1.988       .  S
O554        C561   1.271       .  A
O555        C569   1.266       .  A
O556        C561   1.270       .  A
O557        C560   1.264       .  A
O558        C570   1.270       .  A
O559        C572   1.268       .  A
C560        O565   1.268       .  A
C560        C973   1.443       .  S
C561        C752   1.437       .  S
O563        C566   1.266       .  A
O564        C566   1.266       .  A
C566        C740   1.442       .  S
O567        C572   1.269       .  A
O568        C570   1.267       .  A
C569        O571   1.269       .  A
C569        C792   1.437       .  S
C570        C733   1.442   1_545  S
C572        C861   1.434       .  S
Fe573       O589   2.070       .  S
Fe573       O579   2.069       .  S
Fe573       O586   2.073       .  S
Fe573       O578   2.059       .  S
Fe573       O584   1.985       .  S
Fe574       O577   2.062       .  S
Fe574       O581   2.067       .  S
Fe574       O585   2.060       .  S
Fe574       O590   2.059       .  S
Fe574       O584   1.978       .  S
Fe575       O593   2.081       .  S
Fe575       O580   2.075       .  S
Fe575       O587   2.073       .  S
Fe575       O576   2.080       .  S
Fe575       O584   1.988       .  S
O576        C583   1.268       .  A
O577        C591   1.267       .  A
O578        C583   1.264       .  A
O579        C582   1.270       .  A
O580        C592   1.269       .  A
O581        C594   1.266       .  A
C582        O587   1.271       .  A
C582        C732   1.437       .  S
C583       C1028   1.443       .  S
O585        C588   1.268       .  A
O586        C588   1.270       .  A
C588        C776   1.434       .  S
O589        C594   1.266       .  A
O590        C592   1.266       .  A
C591        O593   1.270       .  A
C591        C725   1.442   1_655  S
C592        C796   1.437       .  S
C594        C741   1.442       .  S
Fe595       O611   2.073       .  S
Fe595       O601   2.059       .  S
Fe595       O608   2.070       .  S
Fe595       O600   2.068       .  S
Fe595       O606   1.985       .  S
Fe596       O599   2.059       .  S
Fe596       O603   2.060       .  S
Fe596       O607   2.067       .  S
Fe596       O612   2.062       .  S
Fe596       O606   1.978       .  S
Fe597       O615   2.075       .  S
Fe597       O602   2.081       .  S
Fe597       O609   2.081       .  S
Fe597       O598   2.073       .  S
Fe597       O606   1.988       .  S
O598        C605   1.271       .  A
O599        C613   1.266       .  A
O600        C605   1.270       .  A
O601        C604   1.264       .  A
O602        C614   1.270       .  A
O603        C616   1.268       .  A
C604        O609   1.268       .  A
C604       C1012   1.442       .  S
C605        C729   1.437       .  S
O607        C610   1.266       .  A
O608        C610   1.266       .  A
C610        C736   1.442       .  S
O611        C616   1.270       .  A
O612        C614   1.267       .  A
C613        O615   1.269       .  A
C613        C821   1.437       .  S
C614        C721   1.442   1_655  S
C616        C788   1.434       .  S
Fe617       O633   2.070       .  S
Fe617       O623   2.068       .  S
Fe617       O630   2.073       .  S
Fe617       O622   2.059       .  S
Fe617       O628   1.985       .  S
Fe618       O621   2.062       .  S
Fe618       O625   2.067       .  S
Fe618       O629   2.060       .  S
Fe618       O634   2.059       .  S
Fe618       O628   1.978       .  S
Fe619       O637   2.081       .  S
Fe619       O624   2.075       .  S
Fe619       O631   2.074       .  S
Fe619       O620   2.080       .  S
Fe619       O628   1.988       .  S
O620        C627   1.268       .  A
O621        C635   1.267       .  A
O622        C627   1.264       .  A
O623        C626   1.270       .  A
O624        C636   1.269       .  A
O625        C638   1.266       .  A
C626        O631   1.271       .  A
C626        C717   1.437       .  S
C627       C1065   1.443       .  S
O629        C632   1.268       .  A
O630        C632   1.270       .  A
C632        C797   1.434       .  S
O633        C638   1.266       .  A
O634        C636   1.266       .  A
C635        O637   1.270       .  A
C635        C713   1.441   1_565  S
C636        C753   1.437       .  S
C638        C728   1.442       .  S
Fe639       O655   2.073       .  S
Fe639       O645   2.059       .  S
Fe639       O652   2.070       .  S
Fe639       O644   2.069       .  S
Fe639       O650   1.985       .  S
Fe640       O643   2.059       .  S
Fe640       O647   2.060       .  S
Fe640       O651   2.067       .  S
Fe640       O656   2.062       .  S
Fe640       O650   1.978       .  S
Fe641       O659   2.074       .  S
Fe641       O646   2.081       .  S
Fe641       O653   2.080       .  S
Fe641       O642   2.073       .  S
Fe641       O650   1.988       .  S
O642        C649   1.271       .  A
O643        C657   1.266       .  A
O644        C649   1.270       .  A
O645        C648   1.264       .  A
O646        C658   1.270       .  A
O647        C660   1.268       .  A
C648        O653   1.268       .  A
C648       C1048   1.443       .  S
C649        C720   1.437       .  S
O651        C654   1.266       .  A
O652        C654   1.266       .  A
C654        C724   1.442       .  S
O655        C660   1.270       .  A
O656        C658   1.267       .  A
C657        O659   1.269       .  A
C657        C765   1.437       .  S
C658        C709   1.442   1_565  S
C660        C825   1.434       .  S
Fe661       O677   2.070       .  S
Fe661       O667   2.068       .  S
Fe661       O674   2.073       .  S
Fe661       O666   2.059       .  S
Fe661       O672   1.985       .  S
Fe662       O665   2.062       .  S
Fe662       O669   2.066       .  S
Fe662       O673   2.060       .  S
Fe662       O678   2.059       .  S
Fe662       O672   1.978       .  S
Fe663       O681   2.081       .  S
Fe663       O668   2.075       .  S
Fe663       O675   2.073       .  S
Fe663       O664   2.081       .  S
Fe663       O672   1.988       .  S
O664        C671   1.268       .  A
O665        C679   1.267       .  A
O666        C671   1.264       .  A
O667        C670   1.270       .  A
O668        C680   1.269       .  A
O669        C682   1.266       .  A
C670        O675   1.271       .  A
C670        C708   1.437       .  S
C671        C957   1.443       .  S
O673        C676   1.268       .  A
O674        C676   1.270       .  A
C676        C757   1.434       .  S
O677        C682   1.266       .  A
O678        C680   1.266       .  A
C679        O681   1.270       .  A
C679        C748   1.442   1_455  S
C680        C836   1.437       .  S
C682        C716   1.441       .  S
Fe683       O699   2.073       .  S
Fe683       O689   2.059       .  S
Fe683       O696   2.070       .  S
Fe683       O688   2.069       .  S
Fe683       O694   1.985       .  S
Fe684       O687   2.059       .  S
Fe684       O691   2.060       .  S
Fe684       O695   2.067       .  S
Fe684       O700   2.062       .  S
Fe684       O694   1.978       .  S
Fe685       O703   2.075       .  S
Fe685       O690   2.081       .  S
Fe685       O697   2.081       .  S
Fe685       O686   2.073       .  S
Fe685       O694   1.988       .  S
O686        C693   1.271       .  A
O687        C701   1.266       .  A
O688        C693   1.270       .  A
O689        C692   1.264       .  A
O690        C702   1.270       .  A
O691        C704   1.268       .  A
C692        O697   1.268       .  A
C692        C948   1.442       .  S
C693        C705   1.437       .  S
O695        C698   1.266       .  A
O696        C698   1.266       .  A
C698        C712   1.442       .  S
O699        C704   1.270       .  A
O700        C702   1.267       .  A
C701        O703   1.269       .  A
C701        C860   1.437       .  S
C702        C737   1.442   1_455  S
C704        C769   1.435       .  S
C705        C706   1.207       .  T
C706        C707   1.414   1_556  S
C707        C708   1.207       .  T
C709        C710   1.210       .  T
C710        C711   1.418       .  S
C711        C712   1.210       .  T
C713        C714   1.210       .  T
C714        C715   1.418       .  S
C715        C716   1.210       .  T
C717        C718   1.207       .  T
C718        C719   1.414   1_554  S
C719        C720   1.207       .  T
C721        C722   1.210       .  T
C722        C723   1.419       .  S
C723        C724   1.210       .  T
C725        C726   1.210       .  T
C726        C727   1.418       .  S
C727        C728   1.210       .  T
C729        C730   1.207       .  T
C730        C731   1.414   1_556  S
C731        C732   1.207       .  T
C733        C734   1.210       .  T
C734        C735   1.419       .  S
C735        C736   1.210       .  T
C737        C738   1.210       .  T
C738        C739   1.419       .  S
C739        C740   1.210       .  T
C741        C742   1.210       .  T
C742        C743   1.418       .  S
C743        C744   1.210       .  T
C745        C746   1.210       .  T
C746        C747   1.418       .  S
C747        C748   1.210       .  T
C749        C750   1.206       .  T
C750        C751   1.413   1_554  S
C751        C752   1.207       .  T
C753        C754   1.207       .  T
C754        C755   1.414   1_565  S
C755        C756   1.207       .  T
C757        C758   1.205       .  T
C758        C759   1.411       .  S
C759        C760   1.205       .  T
C761        C762   1.207       .  T
C762        C763   1.413       .  S
C763        C764   1.207       .  T
C765        C766   1.207       .  T
C766        C767   1.414   1_565  S
C767        C768   1.207       .  T
C769        C770   1.205       .  T
C770        C771   1.411       .  S
C771        C772   1.205       .  T
C773        C774   1.205       .  T
C774        C775   1.411       .  S
C775        C776   1.205       .  T
C777        C778   1.207       .  T
C778        C779   1.414   1_565  S
C779        C780   1.207       .  T
C781        C782   1.207       .  T
C782        C783   1.413       .  S
C783        C784   1.207       .  T
C785        C786   1.205       .  T
C786        C787   1.411       .  S
C787        C788   1.205       .  T
C789        C790   1.207       .  T
C790        C791   1.414   1_565  S
C791        C792   1.207       .  T
C793        C794   1.207       .  T
C794        C795   1.414   1_455  S
C795        C796   1.207       .  T
C797        C798   1.205       .  T
C798        C799   1.411       .  S
C799        C800   1.205       .  T
C801        C802   1.210       .  T
C802        C803   1.418       .  S
C803        C804   1.210       .  T
C805        C806   1.210       .  T
C806        C807   1.418       .  S
C807        C808   1.210       .  T
C809        C810   1.210       .  T
C810        C811   1.418       .  S
C811        C812   1.210       .  T
C813        C814   1.210       .  T
C814        C815   1.419       .  S
C815        C816   1.210       .  T
C817        C818   1.207       .  T
C818        C819   1.413       .  S
C819        C820   1.207       .  T
C821        C822   1.207       .  T
C822        C823   1.414   1_655  S
C823        C824   1.207       .  T
C825        C826   1.205       .  T
C826        C827   1.411       .  S
C827        C828   1.205       .  T
C829        C830   1.205       .  T
C830        C831   1.411       .  S
C831        C832   1.205       .  T
C833        C834   1.207       .  T
C834        C835   1.414   1_655  S
C835        C836   1.207       .  T
C837        C838   1.209       .  T
C838        C839   1.418       .  S
C839        C840   1.209       .  T
C841        C842   1.210       .  T
C842        C843   1.418       .  S
C843        C844   1.210       .  T
C845        C846   1.210       .  T
C846        C847   1.419       .  S
C847        C848   1.210       .  T
C849        C850   1.210       .  T
C850        C851   1.419       .  S
C851        C852   1.210       .  T
C853        C854   1.207       .  T
C854        C855   1.414       .  S
C855        C856   1.207       .  T
C857        C858   1.207       .  T
C858        C859   1.414   1_655  S
C859        C860   1.207       .  T
C861        C862   1.205       .  T
C862        C863   1.411       .  S
C863        C864   1.205       .  T
C865        C866   1.210       .  T
C866        C867   1.419       .  S
C867        C868   1.210       .  T
C869        C870   1.210       .  T
C870        C871   1.419       .  S
C871        C872   1.210       .  T
C873        C874   1.207       .  T
C874        C875   1.413       .  S
C875        C876   1.207       .  T
C877        C878   1.210       .  T
C878        C879   1.419       .  S
C879        C880   1.210       .  T
C881        C882   1.210       .  T
C882        C883   1.418       .  S
C883        C884   1.210       .  T
C885        C886   1.210       .  T
C886        C887   1.419       .  S
C887        C888   1.210       .  T
C889        C890   1.210       .  T
C890        C891   1.419       .  S
C891        C892   1.210       .  T
C893        C894   1.207       .  T
C894        C895   1.414       .  S
C895        C896   1.207       .  T
C897        C898   1.210       .  T
C898        C899   1.419       .  S
C899        C900   1.210       .  T
C901        C902   1.210       .  T
C902        C903   1.418       .  S
C903        C904   1.210       .  T
C905        C906   1.210       .  T
C906        C907   1.419       .  S
C907        C908   1.210       .  T
C909        C910   1.210       .  T
C910        C911   1.419       .  S
C911        C912   1.210       .  T
C913        C914   1.207       .  T
C914        C915   1.413       .  S
C915        C916   1.207       .  T
C917        C918   1.210       .  T
C918        C919   1.419       .  S
C919        C920   1.210       .  T
C921        C922   1.210       .  T
C922        C923   1.419       .  S
C923        C924   1.210       .  T
C925        C926   1.210       .  T
C926        C927   1.418       .  S
C927        C928   1.210       .  T
C929        C930   1.210       .  T
C930        C931   1.419       .  S
C931        C932   1.210       .  T
C933        C934   1.210       .  T
C934        C935   1.419       .  S
C935        C936   1.210       .  T
C937        C938   1.210       .  T
C938        C939   1.418       .  S
C939        C940   1.210       .  T
C941        C942   1.207       .  T
C942        C943   1.413       .  S
C943        C944   1.207       .  T
C945        C946   1.210       .  T
C946        C947   1.419       .  S
C947        C948   1.210       .  T
C949        C950   1.207       .  T
C950        C951   1.414       .  S
C951        C952   1.207       .  T
C953        C954   1.205       .  T
C954        C955   1.411       .  S
C955        C956   1.205       .  T
C957        C958   1.210       .  T
C958        C959   1.419       .  S
C959        C960   1.210       .  T
C961        C962   1.207       .  T
C962        C963   1.413   1_556  S
C963        C964   1.207       .  T
C965        C966   1.207       .  T
C966        C967   1.414       .  S
C967        C968   1.207       .  T
C969        C970   1.205       .  T
C970        C971   1.411       .  S
C971        C972   1.205       .  T
C973        C974   1.210       .  T
C974        C975   1.419       .  S
C975        C976   1.210       .  T
C977        C978   1.205       .  T
C978        C979   1.411       .  S
C979        C980   1.205       .  T
C981        C982   1.207       .  T
C982        C983   1.414       .  S
C983        C984   1.207       .  T
C985        C986   1.210       .  T
C986        C987   1.418       .  S
C987        C988   1.210       .  T
C989        C990   1.210       .  T
C990        C991   1.419       .  S
C991        C992   1.210       .  T
C993        C994   1.210       .  T
C994        C995   1.419       .  S
C995        C996   1.210       .  T
C997        C998   1.207       .  T
C998        C999   1.414   1_554  S
C999       C1000   1.207       .  T
C1001      C1002   1.205       .  T
C1002      C1003   1.411       .  S
C1003      C1004   1.205       .  T
C1005      C1006   1.207       .  T
C1006      C1007   1.414       .  S
C1007      C1008   1.207       .  T
C1009      C1010   1.210       .  T
C1010      C1011   1.419       .  S
C1011      C1012   1.210       .  T
C1013      C1014   1.205       .  T
C1014      C1015   1.411       .  S
C1015      C1016   1.205       .  T
C1017      C1018   1.207       .  T
C1018      C1019   1.414       .  S
C1019      C1020   1.207       .  T
C1021      C1022   1.210       .  T
C1022      C1023   1.418       .  S
C1023      C1024   1.210       .  T
C1025      C1026   1.210       .  T
C1026      C1027   1.419       .  S
C1027      C1028   1.210       .  T
C1029      C1030   1.210       .  T
C1030      C1031   1.419       .  S
C1031      C1032   1.210       .  T
C1033      C1034   1.207       .  T
C1034      C1035   1.413   1_556  S
C1035      C1036   1.207       .  T
C1037      C1038   1.205       .  T
C1038      C1039   1.411       .  S
C1039      C1040   1.205       .  T
C1041      C1042   1.207       .  T
C1042      C1043   1.414       .  S
C1043      C1044   1.207       .  T
C1045      C1046   1.210       .  T
C1046      C1047   1.419       .  S
C1047      C1048   1.210       .  T
C1049      C1050   1.207       .  T
C1050      C1051   1.414       .  S
C1051      C1052   1.207       .  T
C1053      C1054   1.205       .  T
C1054      C1055   1.411       .  S
C1055      C1056   1.205       .  T
C1057      C1058   1.210       .  T
C1058      C1059   1.418       .  S
C1059      C1060   1.210       .  T
C1061      C1062   1.210       .  T
C1062      C1063   1.418       .  S
C1063      C1064   1.210       .  T
C1065      C1066   1.210       .  T
C1066      C1067   1.419       .  S
C1067      C1068   1.210       .  T
C1069      C1070   1.210       .  T
C1070      C1071   1.418       .  S
C1071      C1072   1.210       .  T
C1073      C1074   1.210       .  T
C1074      C1075   1.419       .  S
C1075      C1076   1.210       .  T
C1077      C1078   1.207       .  T
C1078      C1079   1.413   1_554  S
C1079      C1080   1.207       .  T
C1081      C1082   1.207       .  T
C1082      C1083   1.414       .  S
C1083      C1084   1.207       .  T
C1085      C1086   1.205       .  T
C1086      C1087   1.411       .  S
C1087      C1088   1.205       .  T
