geometry optimzed in LAMMPS
_audit_creation_date              2020-12-01 
_audit_creation_method            'lammps2cif' 
_symmetry_space_group_name_H-M    'P1' 
_symmetry_Int_Tables_number       1 
_symmetry_cell_setting            triclinic 
loop_ 
_symmetry_equiv_pos_as_xyz 
  x,y,z 
_cell_length_a                    31.49354461 
_cell_length_b                    31.499029667904008 
_cell_length_c                    42.48553356468297 
_cell_angle_alpha                 89.88391801978256 
_cell_angle_beta                  89.96489082307545 
_cell_angle_gamma                 119.59254251982405 
loop_ 
_atom_site_label 
_atom_site_type_symbol 
_atom_site_fract_x 
_atom_site_fract_y 
_atom_site_fract_z 
_atom_site_charge 
Zn1        Zn  0.52510061  0.08496793  0.47047780     1.49700
Zn2        Zn  0.54742544  0.02007933  0.01936467     1.49400
Zn3        Zn  0.63270095  0.11061643  0.48055083     1.49100
Zn4        Zn  0.58507810  0.13006593  0.03260298     1.49500
O5          O  0.56905887  0.08281741  0.00040974    -1.81400
O6          O  0.46129116  0.02265856  0.47210499    -0.72000
O7          O  0.61153784  0.01553799  0.02798816    -0.71800
O8          O  0.62599442  0.09563524  0.43385175    -0.71300
O9          O  0.48484762  0.97104900  0.99314611    -0.72000
O10         O  0.55052106  0.08344878  0.42797488    -0.71600
O11         O  0.67022217  0.08680909  0.50508324    -0.72200
O12         O  0.65760019  0.17409111  0.03576555    -0.71600
O13         O  0.52409055  0.02006898  0.06413599    -0.72300
O14         O  0.67386667  0.18223887  0.48705903    -0.71700
O15         O  0.55614774  0.09942234  0.07367020    -0.72200
O16         O  0.55830945  0.17249014  0.02127058    -0.72100
O17         O  0.51779207  0.14503066  0.47460433    -0.71900
C18         C  0.45415928  0.97996251  0.47798565     0.79900
C19         C  0.65654038  0.04718943  0.02237900     0.80400
C20         C  0.58933897  0.08655414  0.41662531     0.79300
C21         C  0.68582922  0.19379078  0.01232292     0.79700
C22         C  0.53237626  0.05517316  0.08260165     0.80900
C23         C  0.53357400  0.17704092  0.49630856     0.79900
Zn24       Zn  0.57594065  0.07949962  0.22180278     1.49700
Zn25       Zn  0.48993343  0.02204028  0.27176198     1.49400
Zn26       Zn  0.56499073  0.13260865  0.28195008     1.49100
Zn27       Zn  0.49366450  0.10698407  0.22984060     1.49500
O28         O  0.53152504  0.08332039  0.25128610    -1.81400
O29         O  0.57584518  0.01564302  0.22603008    -0.72000
O30         O  0.51525366  0.02479918  0.31613892    -0.71800
O31         O  0.63295094  0.17294407  0.26881214    -0.71300
O32         O  0.50179260  0.96967049  0.24751266    -0.72000
O33         O  0.64391743  0.13926081  0.22587110    -0.71600
O34         O  0.56566451  0.10416164  0.32344354    -0.72200
O35         O  0.52459542  0.17905633  0.23321584    -0.71600
O36         O  0.42146290  0.01916058  0.27995523    -0.72300
O37         O  0.53924443  0.17957280  0.28426667    -0.71700
O38         O  0.43222942  0.08576879  0.25457216    -0.72200
O39         O  0.48604307  0.08896293  0.18362333    -0.72100
O40         O  0.54964779  0.07668172  0.17843331    -0.71900
C41         C  0.54004167  0.97388682  0.23320268     0.78100
C42         C  0.54447808  0.06036603  0.33337532     0.80400
C43         C  0.65972785  0.17312294  0.24645295     0.79300
C44         C  0.53212550  0.19916603  0.26008897     0.79700
C45         C  0.40849926  0.05139545  0.27411249     0.80900
C46         C  0.51386875  0.07951643  0.16674322     0.79900
Zn47       Zn  0.52362811  0.36894265  0.03917067     1.49700
Zn48       Zn  0.58873817  0.47353323  0.01614093     1.49400
Zn49       Zn  0.56605916  0.38445274  0.47356252     1.49100
Zn50       Zn  0.48571722  0.41332604  0.48296786     1.49500
O51         O  0.53846294  0.40974725  0.00334947    -1.81400
O52         O  0.53557781  0.40704534  0.07780730    -0.72000
O53         O  0.65410118  0.47755518  0.01058016    -0.71800
O54         O  0.54121586  0.31485799  0.48492636    -0.71300
O55         O  0.58053796  0.48450712  0.06252797    -0.72000
O56         O  0.55439992  0.32641680  0.03909200    -0.71600
O57         O  0.63791615  0.41845099  0.47714312    -0.72200
O58         O  0.48374918  0.39881010  0.43539664    -0.71600
O59         O  0.58294429  0.52288215  0.98932657    -0.72300
O60         O  0.54665007  0.38581763  0.43009264    -0.71700
O61         O  0.50503358  0.48780844  0.48121381    -0.72200
O62         O  0.42207601  0.35378303  0.50545247    -0.72100
O63         O  0.45454262  0.32169128  0.03851248    -0.71900
C64         C  0.55765235  0.45239074  0.08369240     0.79900
C65         C  0.66847666  0.45405005  0.49363976     0.80400
C66         C  0.54246968  0.29681153  0.01619241     0.79300
C67         C  0.51237533  0.39068811  0.41831779     0.79700
C68         C  0.54729948  0.52706398  0.48050650     0.80900
C69         C  0.41646702  0.31630253  0.02494885     0.79900
Zn70       Zn  0.52383493  0.40319637  0.21922921     1.49700
Zn71       Zn  0.62754843  0.48387881  0.23245312     1.49400
Zn72       Zn  0.54257322  0.48427634  0.27167665     1.49100
Zn73       Zn  0.57770097  0.40849410  0.28277093     1.49500
O74         O  0.56527501  0.44439660  0.25181519    -1.81400
O75         O  0.55117308  0.43512703  0.17760998    -0.72000
O76         O  0.66388907  0.54217941  0.25830447    -0.71800
O77         O  0.47982365  0.47068990  0.24537410    -0.71300
O78         O  0.62391943  0.49940143  0.18708461    -0.72000
O79         O  0.45887376  0.39924484  0.22189504    -0.71600
O80         O  0.60662049  0.55252936  0.28202570    -0.72200
O81         O  0.54681382  0.40846018  0.32371938    -0.71600
O82         O  0.66813483  0.45270749  0.23645950    -0.72300
O83         O  0.51636707  0.45782927  0.31551881    -0.71700
O84         O  0.64972152  0.43347425  0.28682104    -0.72200
O85         O  0.55050891  0.34039866  0.26851618    -0.72100
O86         O  0.51761334  0.33610531  0.22149600    -0.71900
C87         C  0.58954658  0.47329620  0.16824296     0.79900
C88         C  0.65193031  0.56517333  0.27751980     0.80400
C89         C  0.44901312  0.43234994  0.22988739     0.79300
C90         C  0.52286909  0.42884688  0.33320657     0.79700
C91         C  0.67858659  0.44329820  0.26352987     0.80900
C92         C  0.52978088  0.31694382  0.24365853     0.79900
Zn93       Zn  0.86466582  0.34908888  0.23358346     1.49700
Zn94       Zn  0.95004073  0.42895071  0.27455608     1.49400
Zn95       Zn  0.89249340  0.45647146  0.22451678     1.49100
Zn96       Zn  0.83949716  0.39517062  0.28587106     1.49500
O97         O  0.88847059  0.40992464  0.25492513    -1.81400
O98         O  0.88507812  0.30962169  0.25807802    -0.72000
O99         O  0.00205345  0.49275761  0.25047114    -0.71800
O100        O  0.89665634  0.43246688  0.18165371    -0.71300
O101        O  0.95250206  0.36370572  0.28288241    -0.72000
O102        O  0.88415027  0.35702125  0.18838754    -0.71600
O103        O  0.95475172  0.51966763  0.22896755    -0.72200
O104        O  0.80104883  0.42551714  0.27268974    -0.71600
O105        O  0.94816152  0.45046527  0.31901759    -0.72300
O106        O  0.83335078  0.46524622  0.22785960    -0.71700
O107        O  0.86897320  0.42223472  0.32779900    -0.72200
O108        O  0.79094117  0.32278294  0.28731333    -0.72100
O109        O  0.79299890  0.30857189  0.23640406    -0.71900
C110        C  0.91912192  0.31930696  0.27753464     0.79900
C111        C  0.99679157  0.52627824  0.23628233     0.80400
C112        C  0.89419291  0.39358281  0.17090472     0.79300
C113        C  0.80061650  0.45028815  0.24919341     0.79700
C114        C  0.91312890  0.44373439  0.33710405     0.80900
C115        C  0.77251857  0.29586637  0.26317685     0.79900
Zn116      Zn  0.84345823  0.39942690  0.03559579     1.49700
Zn117      Zn  0.95327835  0.48163459  0.02318582     1.49400
Zn118      Zn  0.89661001  0.40250640  0.47650996     1.49100
Zn119      Zn  0.87003256  0.48336883  0.48559256     1.49500
O120        O  0.89121179  0.43703042  0.00454553    -1.81400
O121        O  0.87472630  0.40607181  0.07689952    -0.72000
O122        O  0.00612352  0.46970467  0.99931012    -0.71800
O123        O  0.83824894  0.33513035  0.48115263    -0.71300
O124        O  0.95283098  0.46085275  0.06832847    -0.72000
O125        O  0.80963093  0.33051109  0.02338928    -0.71600
O126        O  0.95950055  0.40183169  0.48001876    -0.72200
O127        O  0.88565660  0.49190641  0.43927075    -0.71600
O128        O  0.95491170  0.54966362  0.03004362    -0.72300
O129        O  0.89689879  0.42791312  0.43333595    -0.71700
O130        O  0.89042605  0.54389721  0.51022834    -0.72200
O131        O  0.79899756  0.45094767  0.48964793    -0.72100
O132        O  0.78893533  0.41554683  0.03787821    -0.71900
C133        C  0.91849072  0.43156920  0.08640925     0.79900
C134        C  0.00171781  0.43680148  0.48688448     0.80400
C135        C  0.80483572  0.31755467  0.50203040     0.79300
C136        C  0.89338050  0.46347213  0.42193204     0.79700
C137        C  0.91978767  0.55920312  0.02640045     0.80900
C138        C  0.77082945  0.42588721  0.01428076     0.79900
Zn139      Zn  0.50435943  0.77382650  0.19074276     1.49700
Zn140      Zn  0.50588037  0.73603226  0.12543069     1.49400
Zn141      Zn  0.60244342  0.82060301  0.14961129     1.49100
Zn142      Zn  0.55405180  0.71318106  0.18025613     1.49500
O143        O  0.54384037  0.76294863  0.16206346    -1.81400
O144        O  0.44211701  0.76222266  0.17136532    -0.72000
O145        O  0.54725422  0.75665996  0.08802220    -0.71800
O146        O  0.60732043  0.88067273  0.17680579    -0.71300
O147        O  0.45852956  0.75995460  0.12069465    -0.72000
O148        O  0.53531445  0.84330474  0.20111349    -0.71600
O149        O  0.59624558  0.83362609  0.10266526    -0.72200
O150        O  0.61472282  0.71759142  0.15980511    -0.71600
O151        O  0.46548245  0.66418016  0.12838369    -0.72300
O152        O  0.65516978  0.79750627  0.14797240    -0.71700
O153        O  0.49305662  0.64867128  0.17265597    -0.72200
O154        O  0.55809935  0.72151445  0.22744714    -0.72100
O155        O  0.49834028  0.73987127  0.23146139    -0.71900
C156        C  0.43339787  0.76461729  0.14234378     0.79900
C157        C  0.57696362  0.80092630  0.08138322     0.80400
C158        C  0.57461504  0.88200036  0.19458680     0.79300
C159        C  0.65228598  0.75508524  0.14864386     0.79700
C160        C  0.46186734  0.63552582  0.15052142     0.80900
C161        C  0.52779099  0.72797810  0.24388131     0.79900
Zn162      Zn  0.55240958  0.77889817  0.38359491     1.49700
Zn163      Zn  0.53997524  0.67594996  0.39259571     1.49400
Zn164      Zn  0.61210092  0.76115847  0.43863907     1.49100
Zn165      Zn  0.49884075  0.71083968  0.44209279     1.49500
O166        O  0.55283264  0.73451551  0.41420170    -1.81400
O167        O  0.54832003  0.75029680  0.34100817    -0.72000
O168        O  0.56576128  0.64248063  0.41912683    -0.71800
O169        O  0.66315055  0.82472629  0.41418962    -0.71300
O170        O  0.56135289  0.68744879  0.34725165    -0.72000
O171        O  0.61550641  0.84301339  0.38454215    -0.71600
O172        O  0.62095344  0.70043126  0.45024551    -0.72200
O173        O  0.52041048  0.73655884  0.48450997    -0.71600
O174        O  0.46894061  0.62663640  0.39300840    -0.72300
O175        O  0.60109883  0.78324625  0.48188693    -0.71700
O176        O  0.45875072  0.63776232  0.44321294    -0.72200
O177        O  0.45563571  0.73581154  0.42842521    -0.72100
O178        O  0.49385125  0.78791546  0.38924072    -0.71900
C179        C  0.55527342  0.71676772  0.32965066     0.79900
C180        C  0.59492779  0.65524731  0.44230399     0.80400
C181        C  0.65728766  0.85409888  0.39568745     0.79300
C182        C  0.59263271  0.77555347  0.99875214     0.79700
C183        C  0.44571249  0.61115868  0.41878441     0.80900
C184        C  0.45781576  0.76632726  0.40799790     0.79900
Zn185      Zn  0.19696671  0.46147663  0.44617732     1.49700
Zn186      Zn  0.25277926  0.40843806  0.43117714     1.49400
Zn187      Zn  0.14410181  0.36255639  0.40398190     1.49100
Zn188      Zn  0.22874089  0.46210187  0.37865845     1.49500
O189        O  0.20361208  0.42188574  0.41490555    -1.81400
O190        O  0.23211749  0.46312792  0.48566491    -0.72000
O191        O  0.24552195  0.34785566  0.41031449    -0.71800
O192        O  0.08698957  0.36073953  0.43241032    -0.71300
O193        O  0.24850399  0.40259435  0.47890878    -0.72000
O194        O  0.12807802  0.43223702  0.45695446    -0.71600
O195        O  0.16500145  0.30790058  0.40123977    -0.72200
O196        O  0.19840887  0.42388672  0.34100467    -0.71600
O197        O  0.31800246  0.46622719  0.42032819    -0.72300
O198        O  0.12593697  0.36528355  0.35766238    -0.71700
O199        O  0.30104873  0.49367183  0.37642100    -0.72200
O200        O  0.21386141  0.51675959  0.37930176    -0.72100
O201        O  0.21062366  0.52715645  0.43070978    -0.71900
C202        C  0.24625517  0.43509352  0.99961574     0.79900
C203        C  0.20725069  0.31040014  0.40027291     0.80400
C204        C  0.08815132  0.39438158  0.45036947     0.79300
C205        C  0.15574783  0.38885594  0.33549607     0.79700
C206        C  0.33111929  0.49554336  0.39699384     0.80900
C207        C  0.21065277  0.54046742  0.40242185     0.79900
Zn208      Zn  0.25248666  0.46526605  0.14088728     1.49700
Zn209      Zn  0.16208416  0.39957026  0.18424358     1.49400
Zn210      Zn  0.22833732  0.35884727  0.15195784     1.49100
Zn211      Zn  0.26802183  0.44450066  0.20428366     1.49500
O212        O  0.22574786  0.41376941  0.16978612    -1.81400
O213        O  0.21921241  0.50363758  0.14593905    -0.72000
O214        O  0.11246588  0.34309373  0.15845208    -0.71800
O215        O  0.24492057  0.37091192  0.10460974    -0.71300
O216        O  0.15722232  0.46101934  0.17891130    -0.72000
O217        O  0.24701630  0.44176980  0.09781455    -0.71600
O218        O  0.15410837  0.30312701  0.15054014    -0.72200
O219        O  0.31421323  0.42152534  0.20531058    -0.71600
O220        O  0.15379308  0.38024224  0.23091943    -0.72300
O221        O  0.28782703  0.35582438  0.17501900    -0.71700
O222        O  0.23235461  0.42152407  0.24407200    -0.72200
O223        O  0.31348057  0.51678666  0.20053024    -0.72100
O224        O  0.32300015  0.50909263  0.14978237    -0.71900
C225        C  0.18360918  0.49917339  0.16253727     0.79900
C226        C  0.11423934  0.30548936  0.14911524     0.80400
C227        C  0.24752124  0.40466694  0.08664909     0.79300
C228        C  0.31976708  0.38756422  0.19401887     0.79700
C229        C  0.18782688  0.39396762  0.25126353     0.80900
C230        C  0.33957969  0.53100180  0.17574438     0.79900
Zn231      Zn  0.19314312  0.69295278  0.19465417     1.49700
Zn232      Zn  0.24891237  0.80084837  0.17953646     1.49400
Zn233      Zn  0.22711159  0.72391164  0.12776029     1.49100
Zn234      Zn  0.14170658  0.73761943  0.14958740     1.49500
O235        O  0.20063244  0.73880374  0.16311795    -1.81400
O236        O  0.23015806  0.72568326  0.23364832    -0.72000
O237        O  0.31464574  0.80843151  0.17101688    -0.71800
O238        O  0.20672732  0.65325189  0.12723466    -0.71300
O239        O  0.24437381  0.80185425  0.22749328    -0.72000
O240        O  0.20523977  0.64044739  0.17874605    -0.71600
O241        O  0.29911636  0.75832727  0.13049107    -0.72200
O242        O  0.12775082  0.71725212  0.10265507    -0.71600
O243        O  0.24218134  0.85321128  0.15661566    -0.72300
O244        O  0.20373438  0.73858475  0.08869623    -0.71700
O245        O  0.16181567  0.81232255  0.14665459    -0.72200
O246        O  0.08368711  0.68310415  0.17773906    -0.72100
O247        O  0.12428201  0.65507156  0.20603823    -0.71900
C248        C  0.24231778  0.76765133  0.24480939     0.79900
C249        C  0.32838776  0.78836607  0.15056767     0.80400
C250        C  0.20330573  0.62638072  0.15048078     0.79300
C251        C  0.16033982  0.72778957  0.08150226     0.79700
C252        C  0.20380051  0.85182955  0.14574658     0.80900
C253        C  0.08443845  0.65236754  0.19765670     0.79900
Zn254      Zn  0.23410180  0.83342070  0.39641075     1.49700
Zn255      Zn  0.25751081  0.75034566  0.38695821     1.49400
Zn256      Zn  0.27124882  0.78675667  0.44951844     1.49100
Zn257      Zn  0.16604865  0.72732312  0.42959423     1.49500
O258        O  0.22973420  0.77584783  0.41494251    -1.81400
O259        O  0.25079019  0.83658467  0.34908604    -0.72000
O260        O  0.32716604  0.77405657  0.39771823    -0.71800
O261        O  0.32185839  0.85471942  0.44988514    -0.71300
O262        O  0.25295154  0.76769776  0.34318695    -0.72000
O263        O  0.29454978  0.89457618  0.42022937    -0.71600
O264        O  0.30795994  0.75047056  0.44712201    -0.72200
O265        O  0.15726294  0.73911156  0.47650704    -0.71600
O266        O  0.22456403  0.67906971  0.39311371    -0.72300
O267        O  0.23600163  0.77719746  0.48906867    -0.71700
O268        O  0.16268063  0.66121378  0.42594596    -0.72200
O269        O  0.11742385  0.73444016  0.40174609    -0.72100
O270        O  0.15961189  0.81552528  0.39324882    -0.71900
C271        C  0.25284832  0.80481137  0.33149230     0.79900
C272        C  0.33680462  0.76104186  0.42384857     0.80400
C273        C  0.32700811  0.89434927  0.43893383     0.79300
C274        C  0.19408849  0.75478985  0.99616794     0.79700
C275        C  0.18961003  0.64889503  0.41040205     0.80900
C276        C  0.11988505  0.77365750  0.39117685     0.79900
Zn277      Zn  0.27778661  0.14385891  0.35549101     1.49700
Zn278      Zn  0.20528965  0.15982900  0.30875102     1.49400
Zn279      Zn  0.22134486  0.07062444  0.29888378     1.49100
Zn280      Zn  0.16539781  0.08474346  0.35693536     1.49500
O281        O  0.22001949  0.11422213  0.32959451    -1.81400
O282        O  0.28324192  0.21177004  0.36888605    -0.72000
O283        O  0.22865143  0.17262390  0.26352373    -0.71800
O284        O  0.28285020  0.06530766  0.30300519    -0.71300
O285        O  0.22900792  0.21671423  0.33731152    -0.72000
O286        O  0.33084676  0.13278929  0.33061239    -0.71600
O287        O  0.22621401  0.10141240  0.25633128    -0.72200
O288        O  0.12213299  0.01855503  0.34199617    -0.71600
O289        O  0.13339919  0.13713901  0.30859985    -0.72300
O290        O  0.15954060  0.00431464  0.30228488    -0.71700
O291        O  0.12645021  0.11921292  0.35923231    -0.72200
O292        O  0.18385362  0.07618726  0.39921373    -0.72100
O293        O  0.26415374  0.10648119  0.39777933    -0.71900
C294        C  0.25688625  0.23119926  0.36122144     0.79900
C295        C  0.23112573  0.14154706  0.24555018     0.80400
C296        C  0.32502713  0.09663244  0.31309876     0.79300
C297        C  0.12357240  0.99040794  0.32122223     0.79700
C298        C  0.11140257  0.13082410  0.33478362     0.80900
C299        C  0.22315749  0.08361004  0.41206379     0.79900
Zn300      Zn  0.28087328  0.07398785  0.06606017     1.49700
Zn301      Zn  0.18944143  0.03064668  0.11272614     1.49400
Zn302      Zn  0.23093855  0.13470084  0.09144653     1.49100
Zn303      Zn  0.17203271  0.04093574  0.04740926     1.49500
O304        O  0.22117304  0.07204087  0.07847970    -1.81400
O305        O  0.28247757  0.01458453  0.09128631    -0.72000
O306        O  0.21051715  0.06611395  0.15249903    -0.71800
O307        O  0.28870482  0.18608566  0.06647650    -0.71300
O308        O  0.21013120  0.98243665  0.11520144    -0.72000
O309        O  0.33410092  0.14921222  0.06651420    -0.71600
O310        O  0.24488821  0.14445403  0.13925337    -0.72200
O311        O  0.13400660  0.07579287  0.04533861    -0.71600
O312        O  0.11722700  0.99200402  0.10837848    -0.72300
O313        O  0.16794234  0.13429816  0.08179569    -0.71700
O314        O  0.12202484  0.97123690  0.05936673    -0.72200
O315        O  0.20358716  0.04589669  0.00632346    -0.72100
O316        O  0.27912002  0.06300095  0.01836377    -0.71900
C317        C  0.24780129  0.98013980  0.10771266     0.79900
C318        C  0.23323282  0.11086451  0.15985802     0.80400
C319        C  0.32903033  0.18695141  0.06103875     0.79300
C320        C  0.13393308  0.10896270  0.06227384     0.79700
C321        C  0.09910640  0.96263114  0.08545011     0.80900
C322        C  0.24401532  0.06584669  0.49834370     0.79900
Zn323      Zn  0.92178394  0.80970475  0.30748912     1.49700
Zn324      Zn  0.93701143  0.78609787  0.36842604     1.49400
Zn325      Zn  0.82949619  0.74150744  0.34993128     1.49100
Zn326      Zn  0.89591817  0.70246336  0.31475146     1.49500
O327        O  0.89313069  0.75571212  0.33467100    -1.81400
O328        O  0.99235629  0.85256149  0.31564180    -0.72000
O329        O  0.90289242  0.76264799  0.40874160    -0.71800
O330        O  0.82263997  0.80147533  0.34327184    -0.71300
O331        O  0.97683587  0.85909622  0.36535613    -0.72000
O332        O  0.89052772  0.84891806  0.31589788    -0.71600
O333        O  0.82368029  0.72616527  0.39723298    -0.72200
O334        O  0.82176124  0.64604518  0.31340723    -0.71600
O335        O  0.98588238  0.76574691  0.36732192    -0.72300
O336        O  0.77902880  0.68355357  0.32562970    -0.71700
O337        O  0.95739047  0.70005183  0.33658756    -0.72200
O338        O  0.90919595  0.71749130  0.26701134    -0.72100
O339        O  0.91542507  0.79081960  0.26353780    -0.71900
C340        C  0.00422925  0.87598966  0.34129475     0.79900
C341        C  0.85841795  0.73840664  0.41691198     0.80400
C342        C  0.85227798  0.84201704  0.33029622     0.79300
C343        C  0.78132302  0.64743793  0.31392148     0.79700
C344        C  0.99052419  0.73157629  0.35525994     0.80900
C345        C  0.91308926  0.75348453  0.25074755     0.79900
Zn346      Zn  0.89931890  0.74337718  0.05350740     1.49700
Zn347      Zn  0.88954021  0.79593210  0.11370145     1.49400
Zn348      Zn  0.81271977  0.76187906  0.06349276     1.49100
Zn349      Zn  0.81864040  0.68235934  0.10527822     1.49500
O350        O  0.85586405  0.74429907  0.08429144    -1.81400
O351        O  0.96569005  0.80414001  0.05528554    -0.72000
O352        O  0.85920934  0.83970911  0.11592119    -0.71800
O353        O  0.80043395  0.74190885  0.01781043    -0.71300
O354        O  0.95785346  0.83944848  0.09845138    -0.72000
O355        O  0.87005895  0.74113608  0.01158427    -0.71600
O356        O  0.84043877  0.83335274  0.06522838    -0.72200
O357        O  0.74969852  0.67657553  0.11696817    -0.71600
O358        O  0.89175333  0.76724567  0.15539656    -0.72300
O359        O  0.75380828  0.73916107  0.08994641    -0.71700
O360        O  0.84851960  0.68681958  0.14834556    -0.72200
O361        O  0.83166589  0.63192542  0.07927970    -0.72100
O362        O  0.90390427  0.68210085  0.05688689    -0.71900
C363        C  0.98278569  0.83918054  0.07491093     0.79900
C364        C  0.84876504  0.85583153  0.09128235     0.80400
C365        C  0.83026020  0.73927062  0.50280829     0.79300
C366        C  0.73395008  0.70664034  0.11110626     0.79700
C367        C  0.87526961  0.72366129  0.16546031     0.80900
C368        C  0.87048933  0.63918839  0.06421165     0.79900
Zn369      Zn  0.85260307  0.03465458  0.36600451     1.49700
Zn370      Zn  0.88624156  0.05022497  0.30159371     1.49400
Zn371      Zn  0.80499403  0.07604782  0.31694587     1.49100
Zn372      Zn  0.91440104  0.13957281  0.34739475     1.49500
O373        O  0.86351317  0.07750169  0.33215569    -1.81400
O374        O  0.88998444  0.99913876  0.36278507    -0.72000
O375        O  0.85917346  0.04980152  0.26038415    -0.71800
O376        O  0.74473285  0.01662128  0.34165962    -0.71300
O377        O  0.86732331  0.98173255  0.31310631    -0.72000
O378        O  0.78422097  0.98423661  0.36669994    -0.71600
O379        O  0.79540296  0.05977639  0.26941507    -0.72200
O380        O  0.90608779  0.19010598  0.32415844    -0.71600
O381        O  0.95861132  0.08824078  0.29915476    -0.72300
O382        O  0.82511140  0.15098907  0.31560966    -0.71700
O383        O  0.97960771  0.14473281  0.33662692    -0.72200
O384        O  0.90800084  0.14748276  0.39504945    -0.72100
O385        O  0.86279278  0.06856394  0.40592287    -0.71900
C386        C  0.87957422  0.97120104  0.33917123     0.79900
C387        C  0.82279137  0.05282809  0.25044695     0.80400
C388        C  0.74461351  0.98193263  0.35819088     0.79300
C389        C  0.86770320  0.18985267  0.31435528     0.79700
C390        C  0.99063538  0.12245517  0.31586753     0.80900
C391        C  0.88410564  0.11277247  0.41449379     0.79900
Zn392      Zn  0.92513050  0.07942406  0.05177488     1.49700
Zn393      Zn  0.83394608  0.04931981  0.09665985     1.49400
Zn394      Zn  0.93915179  0.10879368  0.11866477     1.49100
Zn395      Zn  0.89699771  0.15870171  0.06947757     1.49500
O396        O  0.89770027  0.10055224  0.08380828    -1.81400
O397        O  0.89073414  0.00680715  0.05123756    -0.72000
O398        O  0.82324781  0.04861319  0.14414872    -0.71800
O399        O  0.98928712  0.08873675  0.11114439    -0.71300
O400        O  0.83104618  0.98558346  0.08658163    -0.72000
O401        O  0.99588896  0.10283650  0.05993119    -0.71600
O402        O  0.90097296  0.07640746  0.15701809    -0.72200
O403        O  0.95270396  0.21839875  0.09598727    -0.71600
O404        O  0.78307494  0.05680220  0.07245039    -0.72300
O405        O  0.98042197  0.17880692  0.12572274    -0.71700
O406        O  0.82200813  0.13798689  0.06575682    -0.72200
O407        O  0.91622869  0.17160352  0.02259307    -0.72100
O408        O  0.92133167  0.10569523  0.01068655    -0.71900
C409        C  0.85597026  0.97490336  0.06784244     0.79900
C410        C  0.85611975  0.05665625  0.16446907     0.80400
C411        C  0.01370687  0.09864307  0.08580174     0.79300
C412        C  0.98419294  0.21838097  0.11554327     0.79700
C413        C  0.78352401  0.09545565  0.06294861     0.80900
C414        C  0.91079382  0.14534363  0.49985104     0.79900
C415        C  0.87867638  0.12038906  0.44791262    -0.13700
C416        C  0.91154261  0.15652487  0.46599964    -0.28800
H417        H  0.84893715  0.08883520  0.45953710     0.15400
H418        H  0.94174358  0.18922635  0.45593496     0.15900
C419        C  0.84447597  0.04183313  0.19742712    -0.13700
C420        C  0.81535422  0.05120833  0.21589932    -0.28800
H421        H  0.86856632  0.03044860  0.20818974     0.15400
H422        H  0.79191769  0.06393288  0.20585099     0.15900
C423        C  0.84722827  0.90158813  0.09275209    -0.13700
C424        C  0.84689555  0.92488252  0.06636311    -0.28800
H425        H  0.85034027  0.91839696  0.11559025     0.15400
H426        H  0.84813794  0.91036971  0.04341242     0.15900
C427        C  0.84450750  0.88369757  0.33287120    -0.13700
C428        C  0.88215679  0.92663958  0.34165222    -0.28800
H429        H  0.80927282  0.87994859  0.32688068     0.15400
H430        H  0.91593621  0.92917374  0.35008363     0.15900
C431        C  0.82014808  0.73268195  0.46866476    -0.13700
C432        C  0.84968518  0.72438024  0.45010452    -0.28800
H433        H  0.79377641  0.74151230  0.45853584     0.15400
H434        H  0.87671752  0.71699540  0.46083999     0.15900
C435        C  0.88530985  0.71585396  0.19836273    -0.13700
C436        C  0.91478585  0.75421297  0.21625541    -0.28800
H437        H  0.86421654  0.67981624  0.20883719     0.15400
H438        H  0.93422517  0.79026812  0.20555555     0.15900
C439        C  0.06314892  0.10520000  0.08683334    -0.13700
C440        C  0.09049465  0.11419732  0.06088658    -0.28800
H441        H  0.07649042  0.09990320  0.10928906     0.15400
H442        H  0.07623344  0.11603540  0.03795500     0.15900
C443        C  0.03209129  0.88118348  0.06977130    -0.13700
C444        C  0.05117026  0.91887344  0.08992955    -0.28800
H445        H  0.05236918  0.88171644  0.04893429     0.15400
H446        H  0.03110949  0.91760217  0.11106314     0.15900
C447        C  0.08191069  0.94066470  0.31949500    -0.13700
C448        C  0.04893388  0.92320398  0.34305051    -0.28800
H449        H  0.07779764  0.91869863  0.29883233     0.15400
H450        H  0.05430021  0.94461349  0.36420467     0.15900
C451        C  0.21805561  0.06581661  0.44458751    -0.13700
C452        C  0.25434278  0.07259189  0.46410885    -0.28800
H453        H  0.18103982  0.04919264  0.45385182     0.15400
H454        H  0.29159046  0.08789993  0.45560865     0.15900
C455        C  0.24653217  0.12097130  0.19316305    -0.13700
C456        C  0.23708820  0.15029232  0.21112161    -0.28800
H457        H  0.25480492  0.09499282  0.20460037     0.15400
H458        H  0.22753966  0.17579800  0.20041778     0.15900
C459        C  0.06724890  0.13519667  0.33732044    -0.13700
C460        C  0.04118461  0.13333947  0.31201971    -0.28800
H461        H  0.05266701  0.13395157  0.36072967     0.15400
H462        H  0.05332065  0.12997298  0.28867096     0.15900
C463        C  0.03604552  0.73043025  0.36463780    -0.13700
C464        C  0.07508929  0.77118618  0.37710772    -0.28800
H465        H  0.03712298  0.69665345  0.36240321     0.15400
H466        H  0.07439157  0.80532791  0.37715456     0.15900
C467        C  0.24894664  0.93571896  0.11957556    -0.13700
C468        C  0.20749158  0.89709608  0.13182797    -0.28800
H469        H  0.28286391  0.93466505  0.11867536     0.15400
H470        H  0.17332781  0.89768529  0.13079688     0.15900
C471        C  0.25281010  0.80918470  0.29672110    -0.13700
C472        C  0.25270675  0.77398935  0.27874034    -0.28800
H473        H  0.24867277  0.83833621  0.28612888     0.15400
H474        H  0.25589329  0.74463390  0.28994359     0.15900
C475        C  0.14951482  0.72761554  0.04759890    -0.13700
C476        C  0.18576162  0.76061810  0.02948752    -0.28800
H477        H  0.11696218  0.69745454  0.03748280     0.15400
H478        H  0.21729889  0.79003813  0.04121307     0.15900
C479        C  0.19886744  0.57880858  0.14437915    -0.13700
C480        C  0.17584929  0.54128197  0.16448857    -0.28800
H481        H  0.21686117  0.57529621  0.12350437     0.15400
H482        H  0.15537191  0.54380657  0.18431014     0.15900
C483        C  0.02821209  0.26423485  0.12649335    -0.13700
C484        C  0.06872298  0.26289483  0.13681967    -0.28800
H485        H  0.02813519  0.29863157  0.12538467     0.15400
H486        H  0.06915350  0.22865464  0.13563796     0.15900
C487        C  0.21221755  0.27020775  0.38492750    -0.13700
C488        C  0.25506876  0.26956077  0.38114783    -0.28800
H489        H  0.17930227  0.24118191  0.37427102     0.15400
H490        H  0.28809203  0.29657579  0.39278331     0.15900
C491        C  0.25269462  0.43737210  0.03385960    -0.13700
C492        C  0.24985730  0.40099825  0.05202618    -0.28800
H493        H  0.25555746  0.46980792  0.04486869     0.15400
H494        H  0.24607307  0.36788152  0.04155132     0.15900
C495        C  0.17876898  0.37793444  0.28409727    -0.13700
C496        C  0.14314880  0.37638179  0.30215844    -0.28800
H497        H  0.20987616  0.37855320  0.29577114     0.15400
H498        H  0.11144301  0.37635632  0.29211807     0.15900
C499        C  0.20845157  0.58496852  0.39592711    -0.13700
C500        C  0.18318973  0.59961179  0.41413201    -0.28800
H501        H  0.22853255  0.60641486  0.37554407     0.15400
H502        H  0.16079387  0.57675646  0.43340070     0.15900
C503        C  0.41673160  0.77559448  0.40565833    -0.13700
C504        C  0.38087041  0.75723466  0.42723521    -0.28800
H505        H  0.41508279  0.79623526  0.38562671     0.15400
H506        H  0.38346036  0.73819264  0.44786927     0.15900
C507        C  0.70033422  0.90188858  0.38650799    -0.13700
C508        C  0.69860951  0.93679526  0.36806893    -0.28800
H509        H  0.73541819  0.90801115  0.39503524     0.15400
H510        H  0.66378324  0.93150033  0.35965525     0.15900
C511        C  0.40237734  0.56255177  0.42066519    -0.13700
C512        C  0.38119673  0.53600720  0.39492816    -0.28800
H513        H  0.38463306  0.55045570  0.44346403     0.15400
H514        H  0.39655637  0.54972197  0.37175765     0.15900
C515        C  0.41801612  0.58760468  0.15128011    -0.13700
C516        C  0.38930833  0.57301995  0.17695019    -0.28800
H517        H  0.40469427  0.56862436  0.12904768     0.15400
H518        H  0.40161756  0.59384113  0.19864969     0.15900
C519        C  0.69359484  0.70702862  0.12986856    -0.13700
C520        C  0.69280379  0.74971321  0.13405363    -0.28800
H521        H  0.66547099  0.67332800  0.14033929     0.15400
H522        H  0.72270209  0.78305020  0.12432358     0.15900
C523        C  0.52729830  0.72495035  0.27825840    -0.13700
C524        C  0.55482569  0.71180388  0.29524197    -0.28800
H525        H  0.50414481  0.73637450  0.29034369     0.15400
H526        H  0.57625917  0.69760717  0.28406703     0.15900
C527        C  0.60605565  0.79024156  0.03153036    -0.13700
C528        C  0.58682824  0.81278483  0.04798299    -0.28800
H529        H  0.62596833  0.77508439  0.04368448     0.15400
H530        H  0.56709157  0.82828659  0.03606784     0.15900
C531        C  0.39237435  0.77139198  0.13363697    -0.13700
C532        C  0.37793146  0.79583701  0.15255512    -0.28800
H533        H  0.37179786  0.75306172  0.11265974     0.15400
H534        H  0.40000357  0.81559630  0.17275748     0.15900
C535        C  0.91896517  0.60096642  0.04264651    -0.13700
C536        C  0.87602259  0.59707339  0.05303638    -0.28800
H537        H  0.95305343  0.63492772  0.04556969     0.15400
H538        H  0.84290597  0.56179396  0.05182150     0.15900
C539        C  0.04509452  0.43221536  0.47795061    -0.13700
C540        C  0.04286940  0.39283419  0.46276852    -0.28800
H541        H  0.08044136  0.46380721  0.48286674     0.15400
H542        H  0.00772519  0.36128055  0.45741184     0.15900
C543        C  0.91679831  0.27708400  0.29512048    -0.13700
C544        C  0.87314144  0.23531072  0.29961410    -0.28800
H545        H  0.95016126  0.28048897  0.30493910     0.15400
H546        H  0.83994076  0.23346096  0.29067510     0.15900
C547        C  0.03878100  0.60977154  0.21031334    -0.13700
C548        C  0.04049056  0.57349921  0.22717443    -0.28800
H549        H  0.00380504  0.60605035  0.20368493     0.15400
H550        H  0.07568373  0.57720765  0.23319152     0.15900
C551        C  0.89522031  0.46916481  0.38761426    -0.13700
C552        C  0.92349001  0.45737771  0.37032715    -0.28800
H553        H  0.86906919  0.47730569  0.37636721     0.15400
H554        H  0.95167998  0.45236431  0.38162484     0.15900
C555        C  0.89974136  0.38994719  0.13703779    -0.13700
C556        C  0.92833204  0.42972373  0.11987137    -0.28800
H557        H  0.87544278  0.35548051  0.12561597     0.15400
H558        H  0.95477002  0.46337738  0.13125798     0.15900
C559        C  0.73657914  0.60686320  0.29908708    -0.13700
C560        C  0.69281083  0.60574267  0.29549528    -0.28800
H561        H  0.74080941  0.57735696  0.28922902     0.15400
H562        H  0.68703125  0.63385312  0.30603748     0.15900
C563        C  0.36595693  0.38821103  0.20337527    -0.13700
C564        C  0.40067603  0.42626311  0.22069716    -0.28800
H565        H  0.37237202  0.35917324  0.19531320     0.15400
H566        H  0.39401745  0.45541332  0.22817771     0.15900
C567        C  0.72409821  0.44257249  0.26808849    -0.13700
C568        C  0.75938163  0.45920085  0.24606453    -0.28800
H569        H  0.72787309  0.42647939  0.28981480     0.15400
H570        H  0.75617456  0.47633711  0.22465988     0.15900
C571        C  0.36989934  0.27086891  0.03403543    -0.13700
C572        C  0.37170259  0.23297608  0.04884507    -0.28800
H573        H  0.33499066  0.26839570  0.02890560     0.15400
H574        H  0.40696728  0.23514844  0.05189710     0.15900
C575        C  0.72291004  0.42210191  0.01662022    -0.13700
C576        C  0.71828468  0.46300427  0.49385580    -0.28800
H577        H  0.71507794  0.44055987  0.54108819     0.15400
H578        H  0.74394637  0.48777012  0.99159549     0.15900
C579        C  0.59447610  0.61502639  0.46135491    -0.13700
C580        C  0.55206061  0.57171186  0.46480283    -0.28800
H581        H  0.62763214  0.62107159  0.47306384     0.15400
H582        H  0.51897442  0.56785351  0.45412533     0.15900
C583        C  0.55511585  0.46576215  0.11615553    -0.13700
C584        C  0.59478282  0.48547183  0.13448093    -0.28800
H585        H  0.51921352  0.44634233  0.12706961     0.15400
H586        H  0.63110603  0.50380087  0.12413541     0.15900
C587        C  0.50496763  0.42074212  0.36609988    -0.13700
C588        C  0.50820695  0.38724886  0.38393980    -0.28800
H589        H  0.49557494  0.44638834  0.37671553     0.15400
H590        H  0.51931830  0.36305584  0.37304462     0.15900
C591        C  0.36571662  0.05072521  0.29037969    -0.13700
C592        C  0.36832013  0.09241686  0.30214624    -0.28800
H593        H  0.33177584  0.01629628  0.29208383     0.15400
H594        H  0.40352723  0.12570697  0.30221991     0.15900
C595        C  0.72642404  0.24997092  0.26643231    -0.13700
C596        C  0.70936278  0.21519726  0.24402548    -0.28800
H597        H  0.70554836  0.24516001  0.28781882     0.15400
H598        H  0.73085891  0.21911403  0.22309709     0.15900
C599        C  0.54214155  0.92908510  0.22383147    -0.13700
C600        C  0.57933428  0.92879942  0.20714621    -0.28800
H601        H  0.51003448  0.89455260  0.22966727     0.15400
H602        H  0.61153004  0.96302585  0.20094539     0.15900
C603        C  0.53384898  0.24620318  0.26359331    -0.13700
C604        C  0.52171683  0.26707357  0.24022940    -0.28800
H605        H  0.54658297  0.26465238  0.28604351     0.15400
H606        H  0.50800868  0.24834281  0.21796650     0.15900
C607        C  0.69755752  0.04782013  0.04065997    -0.13700
C608        C  0.73921735  0.09089141  0.04674464    -0.28800
H609        H  0.69299808  0.01377765  0.05013495     0.15400
H610        H  0.74190394  0.12468467  0.03820314     0.15900
C611        C  0.52783354  0.22031535  0.49364220    -0.13700
C612        C  0.54185141  0.25047194  0.02014208    -0.28800
H613        H  0.51132937  0.22520421  0.47249074     0.15400
H614        H  0.55848723  0.24568855  0.04126591     0.15900
C615        C  0.40736751  0.93712451  0.46710758    -0.13700
C616        C  0.37260556  0.93980142  0.44896961    -0.28800
H617        H  0.40183534  0.90156283  0.47409916     0.15400
H618        H  0.37802275  0.97504339  0.44132129     0.15900
C619        C  0.51788048  0.04525822  0.11585838    -0.13700
C620        C  0.50727098  0.07511683  0.13244946    -0.28800
H621        H  0.52239412  0.01718473  0.12778703     0.15400
H622        H  0.49981756  0.10120185  0.12040351     0.15900
C623        C  0.59159942  0.08189644  0.38241407    -0.13700
C624        C  0.55102451  0.05146381  0.36643754    -0.28800
H625        H  0.62437599  0.10820352  0.37005301     0.15400
H626        H  0.51941985  0.02335183  0.37890230     0.15900
C627        C  0.76424240  0.26745294  0.49840859    -0.13700
C628        C  0.73264430  0.23793879  0.01748200    -0.28800
H629        H  0.76233201  0.24792692  0.47692698     0.15400
H630        H  0.73736212  0.25631012  0.03989374     0.15900
Zn631      Zn  0.52348751  0.08307037  0.97072692     1.49700
Zn632      Zn  0.54875325  0.02296366  0.51970633     1.49400
Zn633      Zn  0.63019039  0.10565939  0.97890289     1.49100
Zn634      Zn  0.58355952  0.13275951  0.53281433     1.49500
O635        O  0.57036858  0.08582841  0.50088244    -1.81400
O636        O  0.46005527  0.02048393  0.97214348    -0.72000
O637        O  0.61377514  0.02007783  0.52970840    -0.71800
O638        O  0.62209634  0.09155542  0.93241149    -0.71300
O639        O  0.48642473  0.97335436  0.49283361    -0.72000
O640        O  0.54829468  0.08400739  0.92730040    -0.71600
O641        O  0.66783510  0.08117546  0.00242862    -0.72200
O642        O  0.65531162  0.17953364  0.53765354    -0.71600
O643        O  0.52351880  0.02253384  0.56392493    -0.72300
O644        O  0.67338690  0.17660338  0.98472530    -0.71700
O645        O  0.55263321  0.10160546  0.57316453    -0.72200
O646        O  0.55687579  0.17424639  0.51981385    -0.72100
O647        O  0.51516467  0.14201379  0.97745159    -0.71900
C648        C  0.45275978  0.97781267  0.97828984     0.79900
C649        C  0.65883683  0.05251679  0.52483819     0.80400
C650        C  0.58624517  0.08566910  0.91547562     0.79300
C651        C  0.68389687  0.20053792  0.51455894     0.79700
C652        C  0.52966575  0.05730814  0.58205097     0.80900
C653        C  0.53224746  0.17417347  0.99905568     0.79900
Zn654      Zn  0.57794307  0.08514311  0.71893149     1.49700
Zn655      Zn  0.49342985  0.02630499  0.76874955     1.49400
Zn656      Zn  0.56728481  0.13701864  0.78020584     1.49100
Zn657      Zn  0.49617039  0.11230671  0.72860894     1.49500
O658        O  0.53438581  0.08840907  0.74913530    -1.81400
O659        O  0.57920692  0.02181231  0.72229749    -0.72000
O660        O  0.51705771  0.02810497  0.81331127    -0.71800
O661        O  0.63549084  0.17633642  0.76747276    -0.71300
O662        O  0.50577252  0.97485129  0.74420022    -0.72000
O663        O  0.64536671  0.14521467  0.72288576    -0.71600
O664        O  0.56549042  0.10754597  0.82185765    -0.72200
O665        O  0.52677807  0.18455282  0.73143836    -0.71600
O666        O  0.42495047  0.02155232  0.77703883    -0.72300
O667        O  0.54318837  0.18550907  0.78220779    -0.71700
O668        O  0.43645576  0.09053102  0.75462121    -0.72200
O669        O  0.48548961  0.09291062  0.68285941    -0.72100
O670        O  0.54961258  0.08181227  0.67625504    -0.71900
C671        C  0.54400467  0.97976414  0.72956977     0.78100
C672        C  0.54439346  0.06345901  0.83128891     0.80400
C673        C  0.66167162  0.17773752  0.74435276     0.79300
C674        C  0.53557185  0.20508849  0.75820761     0.79700
C675        C  0.41273684  0.05467336  0.77311648     0.80900
C676        C  0.51278103  0.08356255  0.66541325     0.79900
Zn677      Zn  0.52765892  0.37173258  0.53642543     1.49700
Zn678      Zn  0.59160519  0.47685404  0.51664832     1.49400
Zn679      Zn  0.56263926  0.37759006  0.97810186     1.49100
Zn680      Zn  0.48340143  0.40813681  0.98269971     1.49500
O681        O  0.54185603  0.41406272  0.50156305    -1.81400
O682        O  0.53779750  0.40677255  0.57621829    -0.72000
O683        O  0.65666275  0.48012778  0.51042937    -0.71800
O684        O  0.53236380  0.30780925  0.98958221    -0.71300
O685        O  0.58287520  0.48519029  0.56354133    -0.72000
O686        O  0.55966280  0.33080401  0.53518855    -0.71600
O687        O  0.63331525  0.40685596  0.98668905    -0.72200
O688        O  0.48550298  0.39318860  0.93569613    -0.71600
O689        O  0.58549761  0.52800085  0.49150324    -0.72300
O690        O  0.54983803  0.38189837  0.93337818    -0.71700
O691        O  0.50262799  0.48284230  0.97879306    -0.72200
O692        O  0.41881268  0.34822068  0.00463069    -0.72100
O693        O  0.45901370  0.32381704  0.53550940    -0.71900
C694        C  0.55932712  0.45150982  0.58367477     0.79900
C695        C  0.66472959  0.44635075  0.99961766     0.80400
C696        C  0.54917864  0.30244821  0.51173839     0.79300
C697        C  0.51651839  0.38678947  0.92000070     0.79700
C698        C  0.54515780  0.52183810  0.97762901     0.80900
C699        C  0.42040946  0.32017151  0.52391279     0.79900
Zn700      Zn  0.52296808  0.40887844  0.72121797     1.49700
Zn701      Zn  0.62871548  0.49159472  0.73340136     1.49400
Zn702      Zn  0.54245633  0.48715932  0.77550413     1.49100
Zn703      Zn  0.58211851  0.41431869  0.78276129     1.49500
O704        O  0.56661538  0.45000990  0.75320339    -1.81400
O705        O  0.55051608  0.44031481  0.67949409    -0.72000
O706        O  0.66354328  0.54949633  0.76026135    -0.71800
O707        O  0.47889190  0.47559878  0.75071759    -0.71300
O708        O  0.62291723  0.50592331  0.68778672    -0.72000
O709        O  0.45785244  0.40618213  0.72467200    -0.71600
O710        O  0.60573809  0.55495335  0.78732602    -0.72200
O711        O  0.55149860  0.41040215  0.82442987    -0.71600
O712        O  0.67302747  0.46354484  0.73643955    -0.72300
O713        O  0.51687888  0.45654732  0.81863142    -0.71700
O714        O  0.65456567  0.44108753  0.78631871    -0.72200
O715        O  0.55632418  0.34717795  0.76716355    -0.72100
O716        O  0.51627300  0.34126259  0.72283429    -0.71900
C717        C  0.58841708  0.47831944  0.66936252     0.79900
C718        C  0.65115627  0.56956532  0.78147540     0.80400
C719        C  0.44782740  0.43851343  0.73438425     0.79300
C720        C  0.52559174  0.42789600  0.83511632     0.79700
C721        C  0.68365369  0.45264189  0.76301521     0.80900
C722        C  0.53221101  0.32298602  0.74334604     0.79900
Zn723      Zn  0.86801586  0.35103862  0.73348481     1.49700
Zn724      Zn  0.95286434  0.43060910  0.77394530     1.49400
Zn725      Zn  0.89599646  0.45954116  0.72425500     1.49100
Zn726      Zn  0.84168069  0.39881053  0.78464868     1.49500
O727        O  0.89119836  0.41224144  0.75439248    -1.81400
O728        O  0.88755275  0.31048526  0.75861785    -0.72000
O729        O  0.00567395  0.49468317  0.75027067    -0.71800
O730        O  0.90016758  0.43504042  0.68175776    -0.71300
O731        O  0.95559377  0.36530941  0.78240385    -0.72000
O732        O  0.88823800  0.35966521  0.68826716    -0.71600
O733        O  0.95894147  0.52230253  0.72885289    -0.72200
O734        O  0.80426479  0.43088796  0.77171142    -0.71600
O735        O  0.95053575  0.45171507  0.81827336    -0.72300
O736        O  0.83737917  0.46991354  0.72691233    -0.71700
O737        O  0.87131980  0.42453880  0.82646795    -0.72200
O738        O  0.79210937  0.32692602  0.78586163    -0.72100
O739        O  0.79632646  0.31165468  0.73537018    -0.71900
C740        C  0.92232852  0.32064730  0.77762232     0.79900
C741        C  0.00084833  0.52857456  0.73622468     0.80400
C742        C  0.89805082  0.39635423  0.67091579     0.79300
C743        C  0.80452755  0.45590915  0.74814060     0.79700
C744        C  0.91529732  0.44517013  0.83607770     0.80900
C745        C  0.77453897  0.29977531  0.76175157     0.79900
Zn746      Zn  0.84511165  0.41218729  0.53782918     1.49700
Zn747      Zn  0.95631748  0.48903000  0.52488663     1.49400
Zn748      Zn  0.89643292  0.39573589  0.97350527     1.49100
Zn749      Zn  0.86460738  0.47297765  0.98451494     1.49500
O750        O  0.89391405  0.44605073  0.50649193    -1.81400
O751        O  0.87721605  0.41488798  0.57852534    -0.72000
O752        O  0.00745072  0.47595494  0.50056661    -0.71800
O753        O  0.83910690  0.32707146  0.97648430    -0.71300
O754        O  0.95603561  0.46654917  0.56930807    -0.72000
O755        O  0.80441075  0.34283154  0.52521931    -0.71600
O756        O  0.96047842  0.39682994  0.97659615    -0.72200
O757        O  0.88110679  0.48426637  0.93868959    -0.71600
O758        O  0.95992107  0.55746056  0.53261763    -0.72300
O759        O  0.89708423  0.42357888  0.93118506    -0.71700
O760        O  0.88346093  0.53262052  0.00912731    -0.72200
O761        O  0.79339272  0.43943756  0.98824508    -0.72100
O762        O  0.79850865  0.43911536  0.54100826    -0.71900
C763        C  0.92155257  0.43777088  0.58744260     0.79900
C764        C  0.00204635  0.43190789  0.98454986     0.80400
C765        C  0.80836679  0.30718945  0.99875637     0.79300
C766        C  0.89171873  0.45857361  0.92075345     0.79700
C767        C  0.92619461  0.56879652  0.52840086     0.80900
C768        C  0.77983485  0.44680160  0.51657771     0.79900
Zn769      Zn  0.51102373  0.77955001  0.69284499     1.49700
Zn770      Zn  0.51055598  0.73833690  0.63014079     1.49400
Zn771      Zn  0.61052760  0.82392756  0.65173326     1.49100
Zn772      Zn  0.56242729  0.71912151  0.68484957     1.49500
O773        O  0.55098065  0.76741871  0.66510902    -1.81400
O774        O  0.44677965  0.76512416  0.67421278    -0.72000
O775        O  0.55072281  0.75425910  0.59237125    -0.71800
O776        O  0.61306846  0.88614343  0.67516504    -0.71300
O777        O  0.46377456  0.76289721  0.62377942    -0.72000
O778        O  0.54157543  0.84954272  0.70019011    -0.71600
O779        O  0.60868439  0.83024848  0.60336425    -0.72200
O780        O  0.62340536  0.72307330  0.66564469    -0.71600
O781        O  0.46866678  0.66749538  0.63770678    -0.72300
O782        O  0.66465429  0.80322974  0.65497408    -0.71700
O783        O  0.50269791  0.65327029  0.67924047    -0.72200
O784        O  0.56676141  0.73053141  0.73155049    -0.72100
O785        O  0.50805247  0.75056344  0.73492878    -0.71900
C786        C  0.43781378  0.76687274  0.64514441     0.79900
C787        C  0.58528680  0.79571627  0.58369334     0.80400
C788        C  0.58022049  0.88810273  0.69249001     0.79300
C789        C  0.66173756  0.76084418  0.65564637     0.79700
C790        C  0.46804208  0.63948966  0.65950886     0.80900
C791        C  0.53743880  0.73888000  0.74766720     0.79900
Zn792      Zn  0.56323741  0.78602899  0.88837140     1.49700
Zn793      Zn  0.54075687  0.67983127  0.89606949     1.49400
Zn794      Zn  0.62564547  0.75971504  0.93538185     1.49100
Zn795      Zn  0.51402729  0.72273282  0.94991458     1.49500
O796        O  0.56252652  0.73989179  0.91788107    -1.81400
O797        O  0.55992902  0.75969934  0.84522737    -0.72000
O798        O  0.56252446  0.64045660  0.91938089    -0.71800
O799        O  0.67572839  0.82429861  0.91109551    -0.71300
O800        O  0.55867888  0.68876795  0.85036348    -0.72000
O801        O  0.62681189  0.84986638  0.89032744    -0.71600
O802        O  0.62966222  0.69513587  0.94392132    -0.72200
O803        O  0.54757138  0.75334373  0.99102292    -0.71600
O804        O  0.46951773  0.63772268  0.90059868    -0.72300
O805        O  0.62621427  0.78170253  0.97959798    -0.71700
O806        O  0.47020226  0.64844854  0.95216788    -0.72200
O807        O  0.46980751  0.74818872  0.93700178    -0.72100
O808        O  0.50362272  0.79334991  0.89414139    -0.71900
C809        C  0.56026895  0.72275380  0.83334196     0.79900
C810        C  0.59670643  0.65051208  0.93874422     0.80400
C811        C  0.66940384  0.85747130  0.89731904     0.79300
C812        C  0.56090492  0.76623193  0.49698119     0.79700
C813        C  0.45181070  0.62188425  0.92781741     0.80900
C814        C  0.46920612  0.77438895  0.91430691     0.79900
Zn815      Zn  0.20215188  0.46265750  0.94697868     1.49700
Zn816      Zn  0.26033259  0.41069863  0.93541046     1.49400
Zn817      Zn  0.15452003  0.36668719  0.90243748     1.49100
Zn818      Zn  0.24320277  0.46603798  0.88132147     1.49500
O819        O  0.21284260  0.42452405  0.91650483    -1.81400
O820        O  0.23510737  0.46533289  0.98757571    -0.72000
O821        O  0.25441261  0.34989945  0.91438046    -0.71800
O822        O  0.09423961  0.36320125  0.92882889    -0.71300
O823        O  0.25078606  0.40398627  0.98283733    -0.72000
O824        O  0.13235224  0.43248029  0.95601963    -0.71600
O825        O  0.17520466  0.31206749  0.90102062    -0.72200
O826        O  0.21778895  0.43150310  0.84179093    -0.71600
O827        O  0.32707776  0.47028852  0.92864611    -0.72300
O828        O  0.14294790  0.37380105  0.85505552    -0.71700
O829        O  0.31538177  0.49850301  0.88332965    -0.72200
O830        O  0.22835451  0.52035706  0.88027130    -0.72100
O831        O  0.21610941  0.52779782  0.93090033    -0.71900
C832        C  0.24438365  0.43304448  0.49658006     0.79900
C833        C  0.21691700  0.31346628  0.90240527     0.80400
C834        C  0.09326458  0.39502842  0.94761289     0.79300
C835        C  0.17462262  0.39961683  0.83421230     0.79700
C836        C  0.34274090  0.50071597  0.90590139     0.80900
C837        C  0.22066488  0.54239800  0.90254941     0.79900
Zn838      Zn  0.24058726  0.46345910  0.63145912     1.49700
Zn839      Zn  0.16386721  0.40655735  0.68217973     1.49400
Zn840      Zn  0.23084291  0.36610759  0.65074837     1.49100
Zn841      Zn  0.27252841  0.46034335  0.69688710     1.49500
O842        O  0.22657042  0.42127636  0.66586451    -1.81400
O843        O  0.20858829  0.50271550  0.63643559    -0.72000
O844        O  0.11316597  0.34632086  0.65977140    -0.71800
O845        O  0.24943481  0.37585308  0.60313296    -0.71300
O846        O  0.15514026  0.46539592  0.67499330    -0.72000
O847        O  0.22409482  0.42852605  0.59188296    -0.71600
O848        O  0.15714662  0.30936439  0.64978037    -0.72200
O849        O  0.31384443  0.43186852  0.70721182    -0.71600
O850        O  0.16295385  0.39857419  0.72981902    -0.72300
O851        O  0.28922979  0.36586599  0.67711373    -0.71700
O852        O  0.23811768  0.46147481  0.73622510    -0.72200
O853        O  0.32335574  0.52597422  0.68064496    -0.72100
O854        O  0.31110111  0.51106135  0.62948279    -0.71900
C855        C  0.17741262  0.50108750  0.65603452     0.79900
C856        C  0.11626429  0.30979807  0.64965334     0.80400
C857        C  0.23932521  0.39991007  0.58307700     0.79300
C858        C  0.31922755  0.39686405  0.69733760     0.79700
C859        C  0.19655681  0.43033121  0.74729406     0.80900
C860        C  0.33770912  0.53603005  0.65218424     0.79900
Zn861      Zn  0.19751443  0.69709250  0.69367857     1.49700
Zn862      Zn  0.25243361  0.80560002  0.67888517     1.49400
Zn863      Zn  0.23023038  0.73003046  0.62686412     1.49100
Zn864      Zn  0.14457887  0.74143620  0.65021300     1.49500
O865        O  0.20406165  0.74355963  0.66292613    -1.81400
O866        O  0.23622342  0.73015688  0.73228882    -0.72000
O867        O  0.31818652  0.81242730  0.67030284    -0.71800
O868        O  0.20644234  0.65887595  0.62468751    -0.71300
O869        O  0.24826587  0.80579564  0.72698772    -0.72000
O870        O  0.20822340  0.64449186  0.67576892    -0.71600
O871        O  0.30259583  0.76129084  0.63038655    -0.72200
O872        O  0.13016611  0.72026110  0.60362764    -0.71600
O873        O  0.24427893  0.85758502  0.65588393    -0.72300
O874        O  0.20703105  0.74769601  0.58857438    -0.71700
O875        O  0.16360305  0.81595561  0.64692999    -0.72200
O876        O  0.08747204  0.68632245  0.67865961    -0.72100
O877        O  0.12887568  0.65849280  0.70628406    -0.71900
C878        C  0.24759291  0.77175954  0.74385742     0.79900
C879        C  0.33178185  0.79114408  0.65062609     0.80400
C880        C  0.20342143  0.63091588  0.64715205     0.79300
C881        C  0.16254049  0.73358507  0.58204016     0.79700
C882        C  0.20535432  0.85572537  0.64549614     0.80900
C883        C  0.08873905  0.65552688  0.69830289     0.79900
Zn884      Zn  0.23486856  0.83008273  0.89667471     1.49700
Zn885      Zn  0.26361594  0.75019193  0.88599675     1.49400
Zn886      Zn  0.27405367  0.78400928  0.94892050     1.49100
Zn887      Zn  0.16955232  0.72368405  0.92887832     1.49500
O888        O  0.23303119  0.77305115  0.91413613    -1.81400
O889        O  0.25150784  0.83509601  0.84928133    -0.72000
O890        O  0.33361451  0.77326896  0.89807206    -0.71800
O891        O  0.32271690  0.85232770  0.94952697    -0.71300
O892        O  0.26012477  0.76989228  0.84230354    -0.72000
O893        O  0.29347550  0.89149662  0.92091355    -0.71600
O894        O  0.31250648  0.74932589  0.94720312    -0.72200
O895        O  0.15987281  0.73351730  0.97604098    -0.71600
O896        O  0.23013074  0.67859548  0.89094199    -0.72300
O897        O  0.23855432  0.77328331  0.98839700    -0.71700
O898        O  0.16791926  0.65904212  0.92400872    -0.72200
O899        O  0.11939407  0.72939002  0.90207401    -0.72100
O900        O  0.16009537  0.81060995  0.89441776    -0.71900
C901        C  0.25684837  0.80570995  0.83119197     0.79900
C902        C  0.34265907  0.76072993  0.92463228     0.80400
C903        C  0.32645103  0.89174369  0.93927460     0.79300
C904        C  0.19157936  0.75997178  0.49664822     0.79700
C905        C  0.19528868  0.64776979  0.90808890     0.80900
C906        C  0.12078645  0.76847153  0.89234466     0.79900
Zn907      Zn  0.28413728  0.14293076  0.85860109     1.49700
Zn908      Zn  0.21482087  0.16156997  0.81195115     1.49400
Zn909      Zn  0.22938489  0.07249724  0.79987728     1.49100
Zn910      Zn  0.17156795  0.08079734  0.85756902     1.49500
O911        O  0.22746544  0.11410535  0.83178833    -1.81400
O912        O  0.28991519  0.21059995  0.87339108    -0.72000
O913        O  0.23773348  0.17576192  0.76655453    -0.71800
O914        O  0.28974059  0.06680479  0.80507437    -0.71300
O915        O  0.23844357  0.21822027  0.84080161    -0.72000
O916        O  0.33748373  0.13394689  0.83320714    -0.71600
O917        O  0.23700339  0.10572796  0.75820405    -0.72200
O918        O  0.12654066  0.01783265  0.83803482    -0.71600
O919        O  0.14365158  0.13851986  0.81239255    -0.72300
O920        O  0.16712155  0.00629004  0.79928643    -0.71700
O921        O  0.13536710  0.11763643  0.86266995    -0.72200
O922        O  0.18843966  0.06443463  0.89854518    -0.72100
O923        O  0.26948579  0.10202980  0.89943734    -0.71900
C924        C  0.26516062  0.23153833  0.86525441     0.79900
C925        C  0.24134344  0.14587053  0.74806895     0.80400
C926        C  0.33171944  0.09824402  0.81530600     0.79300
C927        C  0.12896579  0.99154446  0.81624917     0.79700
C928        C  0.12130261  0.13105792  0.83852413     0.80900
C929        C  0.22798850  0.07356960  0.91194070     0.79900
Zn930      Zn  0.28147373  0.07819880  0.56527951     1.49700
Zn931      Zn  0.19230486  0.03759215  0.61419384     1.49400
Zn932      Zn  0.23879664  0.14347466  0.59456030     1.49100
Zn933      Zn  0.17491284  0.05403085  0.55011523     1.49500
O934        O  0.22492196  0.07992722  0.58045128    -1.81400
O935        O  0.28176584  0.01754370  0.58976775    -0.72000
O936        O  0.21455296  0.07266955  0.65445481    -0.71800
O937        O  0.29497854  0.19282765  0.56802023    -0.71300
O938        O  0.21123982  0.98745596  0.61584339    -0.72000
O939        O  0.33695520  0.15254051  0.56442948    -0.71600
O940        O  0.25619362  0.15141104  0.64159067    -0.72200
O941        O  0.13722863  0.08874875  0.55394045    -0.71600
O942        O  0.11991077  0.00072637  0.60883352    -0.72300
O943        O  0.17728676  0.14755293  0.58918422    -0.71700
O944        O  0.12544381  0.98380015  0.55900324    -0.72200
O945        O  0.20420663  0.06243482  0.50809123    -0.72100
O946        O  0.27557193  0.06651567  0.51747609    -0.71900
C947        C  0.24775216  0.98387011  0.60703549     0.79900
C948        C  0.24133341  0.11713024  0.66196841     0.80400
C949        C  0.33342565  0.19143409  0.56020381     0.79300
C950        C  0.14009649  0.12230405  0.57194067     0.79700
C951        C  0.10190966  0.97353468  0.58485141     0.80900
C952        C  0.24633731  0.05558499  0.99806337     0.79900
Zn953      Zn  0.92520214  0.80036831  0.79866552     1.49700
Zn954      Zn  0.94317265  0.78773328  0.86289312     1.49400
Zn955      Zn  0.83701224  0.74610454  0.84747147     1.49100
Zn956      Zn  0.89349860  0.69267613  0.81965833     1.49500
O957        O  0.89745289  0.75346789  0.83141316    -1.81400
O958        O  0.99588531  0.85087005  0.80606351    -0.72000
O959        O  0.91227532  0.77139191  0.90421226    -0.71800
O960        O  0.83725167  0.80847337  0.83682555    -0.71300
O961        O  0.98083596  0.85930900  0.85571725    -0.72000
O962        O  0.89036673  0.83813462  0.79683988    -0.71600
O963        O  0.83257645  0.73646982  0.89528434    -0.72200
O964        O  0.81772209  0.64096518  0.82197320    -0.71600
O965        O  0.99093163  0.76599134  0.86395275    -0.72300
O966        O  0.78218371  0.68734615  0.82635158    -0.71700
O967        O  0.95376375  0.69104106  0.84360749    -0.72200
O968        O  0.90284384  0.69237481  0.77172239    -0.72100
O969        O  0.91785216  0.76697803  0.75891636    -0.71900
C970        C  0.00712166  0.87587736  0.83122608     0.79900
C971        C  0.86859767  0.74997432  0.91400034     0.80400
C972        C  0.86004175  0.84037966  0.81550015     0.79300
C973        C  0.78002856  0.64695784  0.81928483     0.79700
C974        C  0.99068422  0.72658395  0.85774298     0.80900
C975        C  0.90938660  0.72459819  0.75112029     0.79900
Zn976      Zn  0.90428011  0.75180274  0.55410804     1.49700
Zn977      Zn  0.89534444  0.80862449  0.61228076     1.49400
Zn978      Zn  0.81463048  0.76589675  0.56629516     1.49100
Zn979      Zn  0.83193712  0.69465971  0.61105841     1.49500
O980        O  0.86216345  0.75335353  0.58585848    -1.81400
O981        O  0.97015786  0.81436644  0.55363773    -0.72000
O982        O  0.86045779  0.84746877  0.61626072    -0.71800
O983        O  0.80023716  0.74261826  0.52132262    -0.71300
O984        O  0.95990310  0.85324233  0.59394895    -0.72000
O985        O  0.87068753  0.74414192  0.51274733    -0.71600
O986        O  0.83683691  0.83683603  0.56648064    -0.72200
O987        O  0.76355618  0.68700400  0.62594553    -0.71600
O988        O  0.90855243  0.78837412  0.65326746    -0.72300
O989        O  0.75796471  0.74134769  0.59501715    -0.71700
O990        O  0.87087567  0.70719008  0.65186678    -0.72200
O991        O  0.84269193  0.64258557  0.58555720    -0.72100
O992        O  0.91119401  0.69178745  0.55895643    -0.71900
C993        C  0.98567096  0.85156931  0.57148460     0.79900
C994        C  0.84587942  0.86052199  0.59211180     0.80400
C995        C  0.83173637  0.73929643  0.00017998     0.79300
C996        C  0.74341728  0.71279067  0.61862577     0.79700
C997        C  0.89868298  0.74769198  0.66547289     0.80900
C998        C  0.87959220  0.64930218  0.56848090     0.79900
Zn999      Zn  0.86662152  0.03730752  0.87014737     1.49700
Zn1000     Zn  0.89969671  0.05191810  0.80391286     1.49400
Zn1001     Zn  0.81834292  0.07705352  0.81787257     1.49100
Zn1002     Zn  0.92701325  0.14377683  0.84755155     1.49500
O1003       O  0.87668383  0.07923439  0.83482503    -1.81400
O1004       O  0.88711105  0.98752926  0.86334129    -0.72000
O1005       O  0.87904987  0.05762045  0.76175927    -0.71800
O1006       O  0.75798063  0.01814646  0.84244040    -0.71300
O1007       O  0.87440547  0.98113316  0.81204753    -0.72000
O1008       O  0.79621014  0.99493371  0.87682937    -0.71600
O1009       O  0.81132525  0.06081256  0.77006628    -0.72200
O1010       O  0.91552899  0.19360344  0.82510778    -0.71600
O1011       O  0.97158856  0.08651898  0.80413970    -0.72300
O1012       O  0.83503847  0.15107052  0.81570242    -0.71700
O1013       O  0.99198700  0.15115747  0.83487044    -0.72200
O1014       O  0.93028641  0.15295594  0.89544774    -0.72100
O1015       O  0.89889243  0.07469157  0.90847181    -0.71900
C1016       C  0.87699071  0.96292618  0.83816966     0.79900
C1017       C  0.84176528  0.05836729  0.75131301     0.80400
C1018       C  0.75718760  0.98842906  0.86384509     0.79300
C1019       C  0.87641456  0.19133049  0.81480857     0.79700
C1020       C  0.00326107  0.12500528  0.81776162     0.80900
C1021       C  0.92084917  0.11957945  0.91577351     0.79900
Zn1022     Zn  0.91124105  0.07553168  0.54521708     1.49700
Zn1023     Zn  0.83848226  0.05702397  0.59926980     1.49400
Zn1024     Zn  0.94769667  0.11228452  0.61135248     1.49100
Zn1025     Zn  0.90130435  0.16347296  0.56772064     1.49500
O1026       O  0.89995089  0.10411472  0.58115240    -1.81400
O1027       O  0.87236463  0.00321216  0.54661619    -0.72000
O1028       O  0.83995776  0.06342619  0.64703983    -0.71800
O1029       O  0.99896009  0.09891156  0.59406389    -0.71300
O1030       O  0.82960599  0.99038567  0.59077794    -0.72000
O1031       O  0.98090319  0.09211730  0.54313742    -0.71600
O1032       O  0.91636929  0.07760301  0.65168901    -0.72200
O1033       O  0.95565517  0.22182765  0.59558161    -0.71600
O1034       O  0.78522328  0.06413397  0.57747585    -0.72300
O1035       O  0.98686571  0.18167933  0.62113105    -0.71700
O1036       O  0.82650980  0.14335714  0.56422415    -0.72200
O1037       O  0.92259520  0.17798129  0.52101252    -0.72100
O1038       O  0.89816702  0.10144508  0.50695665    -0.71900
C1039       C  0.84485350  0.97504394  0.56812522     0.79900
C1040       C  0.87497487  0.06625131  0.66373342     0.80400
C1041       C  0.01004285  0.09771340  0.56539021     0.79300
C1042       C  0.98825886  0.22136243  0.61384566     0.79700
C1043       C  0.78665068  0.10165678  0.56490819     0.80900
C1044       C  0.92085416  0.14424281  0.00238804     0.79900
C1045       C  0.93691305  0.13068466  0.94851050    -0.13700
C1046       C  0.92325620  0.15500441  0.96827319    -0.28800
H1047       H  0.95128798  0.10836755  0.95821476     0.15400
H1048       H  0.90771030  0.17669995  0.95935997     0.15900
C1049       C  0.87008790  0.05738080  0.69789182    -0.13700
C1050       C  0.83587552  0.05823067  0.71661747    -0.28800
H1051       H  0.89972110  0.05406383  0.70849271     0.15400
H1052       H  0.80644048  0.06248021  0.70666220     0.15900
C1053       C  0.84125360  0.90456772  0.59370735    -0.13700
C1054       C  0.83438661  0.92448377  0.56765980    -0.28800
H1055       H  0.84878542  0.92378442  0.61602852     0.15400
H1056       H  0.83073149  0.90737681  0.54488368     0.15900
C1057       C  0.85607934  0.88440420  0.81413311    -0.13700
C1058       C  0.86821252  0.91282909  0.83966384    -0.28800
H1059       H  0.85311586  0.89817094  0.79124739     0.15400
H1060       H  0.87428344  0.89974898  0.86200759     0.15900
C1061       C  0.82579968  0.73687943  0.96559000    -0.13700
C1062       C  0.86267287  0.74053128  0.94782918    -0.28800
H1063       H  0.79465036  0.73728793  0.95494798     0.15400
H1064       H  0.89431069  0.74198397  0.95916333     0.15900
C1065       C  0.91952223  0.75010103  0.69668617    -0.13700
C1066       C  0.90336343  0.71283287  0.71721984    -0.28800
H1067       H  0.94438353  0.78687346  0.70495765     0.15400
H1068       H  0.87921461  0.67550182  0.70978254     0.15900
C1069       C  0.05706646  0.10170780  0.55759926    -0.13700
C1070       C  0.09704372  0.12845056  0.57507302    -0.28800
H1071       H  0.05839296  0.08111764  0.53749429     0.15400
H1072       H  0.09605888  0.15085731  0.59418004     0.15900
C1073       C  0.03461018  0.89404508  0.56647286    -0.13700
C1074       C  0.05345776  0.93029722  0.58776804    -0.28800
H1075       H  0.05541317  0.89530521  0.54574237     0.15400
H1076       H  0.03307465  0.92779452  0.60900263     0.15900
C1077       C  0.08637532  0.94266087  0.81141212    -0.13700
C1078       C  0.05032252  0.92441436  0.83295664    -0.28800
H1079       H  0.08513897  0.92129886  0.79104259     0.15400
H1080       H  0.05309634  0.94542505  0.85388296     0.15900
C1081       C  0.22267239  0.05131528  0.94322085    -0.13700
C1082       C  0.25876843  0.06326358  0.96411359    -0.28800
H1083       H  0.18512972  0.02842953  0.95099486     0.15400
H1084       H  0.29671185  0.08536325  0.95706198     0.15900
C1085       C  0.25575044  0.12618174  0.69512682    -0.13700
C1086       C  0.24749963  0.15570516  0.71376370    -0.28800
H1087       H  0.26318701  0.09918303  0.70588128     0.15400
H1088       H  0.23843960  0.18192355  0.70362913     0.15900
C1089       C  0.07754511  0.13582333  0.84083742    -0.13700
C1090       C  0.05390107  0.13686283  0.81501029    -0.28800
H1091       H  0.06116011  0.13233392  0.86392869     0.15400
H1092       H  0.06765178  0.13556811  0.79177221     0.15900
C1093       C  0.03504832  0.72427748  0.86846656    -0.13700
C1094       C  0.07563597  0.76566708  0.87879401    -0.28800
H1095       H  0.03427673  0.68944222  0.86859134     0.15400
H1096       H  0.07641132  0.80044694  0.87702718     0.15900
C1097       C  0.24883189  0.93911196  0.61843885    -0.13700
C1098       C  0.20812163  0.90079377  0.63165269    -0.28800
H1099       H  0.28247925  0.93769274  0.61649984     0.15400
H1100       H  0.17404361  0.90161050  0.63162752     0.15900
C1101       C  0.25664366  0.81118441  0.79646760    -0.13700
C1102       C  0.25876902  0.77783414  0.77774871    -0.28800
H1103       H  0.25011728  0.83922746  0.78650161     0.15400
H1104       H  0.26406285  0.74935676  0.78835053     0.15900
C1105       C  0.14978873  0.73222894  0.54844867    -0.13700
C1106       C  0.18322023  0.76693200  0.52973115    -0.28800
H1107       H  0.11878247  0.69988933  0.53880184     0.15400
H1108       H  0.21370079  0.79826588  0.54086944     0.15900
C1109       C  0.19595237  0.58255162  0.63957283    -0.13700
C1110       C  0.17145147  0.54424097  0.65891795    -0.28800
H1111       H  0.21306275  0.57908686  0.61824406     0.15400
H1112       H  0.15244110  0.54732133  0.67939490     0.15900
C1113       C  0.03066051  0.26698560  0.62659879    -0.13700
C1114       C  0.07140730  0.26651385  0.63733850    -0.28800
H1115       H  0.02951526  0.30086634  0.62607524     0.15400
H1116       H  0.07313747  0.23298559  0.63569012     0.15900
C1117       C  0.22187165  0.27293918  0.88746615    -0.13700
C1118       C  0.26390657  0.27042176  0.88506415    -0.28800
H1119       H  0.18933222  0.24496751  0.87582114     0.15400
H1120       H  0.29653781  0.29625217  0.89759559     0.15900
C1121       C  0.25194780  0.43448616  0.53069325    -0.13700
C1122       C  0.24553653  0.39655618  0.54879596    -0.28800
H1123       H  0.25672399  0.46750572  0.54202810     0.15400
H1124       H  0.24135663  0.36316166  0.53853646     0.15900
C1125       C  0.19016609  0.43260664  0.78132151    -0.13700
C1126       C  0.16288105  0.39415102  0.80019610    -0.28800
H1127       H  0.21577643  0.46732682  0.79200462     0.15400
H1128       H  0.13650069  0.35890400  0.79063505     0.15900
C1129       C  0.21802275  0.58626163  0.89512011    -0.13700
C1130       C  0.18964315  0.59892249  0.91160705    -0.28800
H1131       H  0.24043030  0.60887708  0.87577734     0.15400
H1132       H  0.16547198  0.57492827  0.92987593     0.15900
C1133       C  0.42633282  0.78083737  0.91027682    -0.13700
C1134       C  0.38776492  0.75890925  0.92972294    -0.28800
H1135       H  0.42533492  0.80168796  0.89016244     0.15400
H1136       H  0.38916584  0.73897552  0.95023206     0.15900
C1137       C  0.71272514  0.90586161  0.88918214    -0.13700
C1138       C  0.71108479  0.94283537  0.87310989    -0.28800
H1139       H  0.74796715  0.91055234  0.89614615     0.15400
H1140       H  0.67630898  0.93813914  0.86507410     0.15900
C1141       C  0.40919403  0.57250419  0.93092317    -0.13700
C1142       C  0.39240840  0.54230199  0.90605198    -0.28800
H1143       H  0.38937898  0.56214483  0.95311192     0.15400
H1144       H  0.41098918  0.55379258  0.88349051     0.15900
C1145       C  0.42395497  0.59183303  0.66382490    -0.13700
C1146       C  0.38531552  0.57796558  0.64487474    -0.28800
H1147       H  0.42117882  0.57032155  0.68456100     0.15400
H1148       H  0.38838730  0.59806661  0.62338461     0.15900
C1149       C  0.70407327  0.71324702  0.63835881    -0.13700
C1150       C  0.70290199  0.75577889  0.64199302    -0.28800
H1151       H  0.67647941  0.67968994  0.64928307     0.15400
H1152       H  0.73255502  0.78895113  0.63188781     0.15900
C1153       C  0.53801157  0.73789896  0.78200410    -0.13700
C1154       C  0.56054990  0.71903718  0.79897290    -0.28800
H1155       H  0.51874732  0.75391669  0.79397845     0.15400
H1156       H  0.57710946  0.69973548  0.78781870     0.15900
C1157       C  0.55834946  0.77765158  0.53009576    -0.13700
C1158       C  0.59615189  0.80228566  0.54966969    -0.28800
H1159       H  0.52157875  0.75971367  0.53991064     0.15400
H1160       H  0.63350230  0.82260791  0.54117684     0.15900
C1161       C  0.39578723  0.77207408  0.63597971    -0.13700
C1162       C  0.38092875  0.79733894  0.65383671    -0.28800
H1163       H  0.37548884  0.75287496  0.61512314     0.15400
H1164       H  0.40274399  0.81792815  0.67390600     0.15900
C1165       C  0.92648921  0.61073109  0.54512522    -0.13700
C1166       C  0.88452189  0.60682262  0.55733542    -0.28800
H1167       H  0.96060023  0.64499247  0.54674010     0.15400
H1168       H  0.85158608  0.57131157  0.55741460     0.15900
C1169       C  0.04667515  0.42911918  0.97572451    -0.13700
C1170       C  0.04653998  0.39168918  0.95913550    -0.28800
H1171       H  0.08134242  0.46053362  0.98211985     0.15400
H1172       H  0.01214166  0.36033231  0.95227616     0.15900
C1173       C  0.92182456  0.27896430  0.79513006    -0.13700
C1174       C  0.87942888  0.23590250  0.79986156    -0.28800
H1175       H  0.95589079  0.28394337  0.80479351     0.15400
H1176       H  0.84544958  0.23225110  0.79095194     0.15900
C1177       C  0.04323626  0.61264396  0.71098662    -0.13700
C1178       C  0.04484098  0.57585793  0.72730404    -0.28800
H1179       H  0.00823922  0.60918927  0.70473715     0.15400
H1180       H  0.08001523  0.57925230  0.73296847     0.15900
C1181       C  0.89488984  0.46688369  0.88677028    -0.13700
C1182       C  0.92501878  0.45791232  0.86936505    -0.28800
H1183       H  0.86801865  0.47411937  0.87566432     0.15400
H1184       H  0.95373687  0.45367543  0.88058287     0.15900
C1185       C  0.90369189  0.39334695  0.63700902    -0.13700
C1186       C  0.93231335  0.43373065  0.62039644    -0.28800
H1187       H  0.87873868  0.35952408  0.62516769     0.15400
H1188       H  0.95928340  0.46668716  0.63219917     0.15900
C1189       C  0.73378690  0.60684418  0.80553737    -0.13700
C1190       C  0.69192302  0.60883443  0.80025212    -0.28800
H1191       H  0.73551357  0.57506741  0.79732965     0.15400
H1192       H  0.68795539  0.63881710  0.80945230     0.15900
C1193       C  0.36392030  0.39574486  0.70862178    -0.13700
C1194       C  0.39930521  0.43335775  0.72587442    -0.28800
H1195       H  0.36962063  0.36612283  0.70083946     0.15400
H1196       H  0.39343529  0.46308404  0.73319184     0.15900
C1197       C  0.72920494  0.45143434  0.76715922    -0.13700
C1198       C  0.76401371  0.46627382  0.74484104    -0.28800
H1199       H  0.73310043  0.43573402  0.78902682     0.15400
H1200       H  0.76084171  0.48287017  0.72317840     0.15900
C1201       C  0.37399735  0.27516485  0.53346206    -0.13700
C1202       C  0.37575385  0.23628044  0.54669974    -0.28800
H1203       H  0.33928714  0.27416536  0.53048405     0.15400
H1204       H  0.41055096  0.23695666  0.54767095     0.15900
C1205       C  0.73541300  0.45061676  0.51908449    -0.13700
C1206       C  0.71442953  0.45510806  0.00227280    -0.28800
H1207       H  0.69400817  0.39151889  0.02939230     0.15400
H1208       H  0.73718712  0.47077292  0.47138160     0.15900
C1209       C  0.59461655  0.60853764  0.95671221    -0.13700
C1210       C  0.55107207  0.56647060  0.96115883    -0.28800
H1211       H  0.62779353  0.61268281  0.96734116     0.15400
H1212       H  0.51802670  0.56390994  0.95134794     0.15900
C1213       C  0.55457053  0.46203106  0.61654383    -0.13700
C1214       C  0.59310383  0.48826737  0.63516924    -0.28800
H1215       H  0.51922341  0.43800272  0.62718431     0.15400
H1216       H  0.62908958  0.51131743  0.62508085     0.15900
C1217       C  0.50762478  0.41663787  0.86794494    -0.13700
C1218       C  0.51659966  0.38640155  0.88546459    -0.28800
H1219       H  0.49242706  0.43745776  0.87874853     0.15400
H1220       H  0.53353790  0.36724746  0.87456438     0.15900
C1221       C  0.37095630  0.05335709  0.79058768    -0.13700
C1222       C  0.37468876  0.09449797  0.80388328    -0.28800
H1223       H  0.33672505  0.01912323  0.79170968     0.15400
H1224       H  0.41008854  0.12755481  0.80438700     0.15900
C1225       C  0.72802970  0.25437758  0.76459648    -0.13700
C1226       C  0.71123632  0.21976679  0.74211252    -0.28800
H1227       H  0.70677493  0.24973262  0.78577346     0.15400
H1228       H  0.73293665  0.22374843  0.72127911     0.15900
C1229       C  0.54678732  0.93535343  0.72028633    -0.13700
C1230       C  0.58402820  0.93523123  0.70356095    -0.28800
H1231       H  0.51521726  0.90074081  0.72670455     0.15400
H1232       H  0.61572430  0.96948013  0.69677008     0.15900
C1233       C  0.53815371  0.25255196  0.76188875    -0.13700
C1234       C  0.52423162  0.27315324  0.73931114    -0.28800
H1235       H  0.55260210  0.27136712  0.78404764     0.15400
H1236       H  0.50846340  0.25398725  0.71745311     0.15900
C1237       C  0.69980212  0.05354739  0.54359294    -0.13700
C1238       C  0.74192293  0.09661485  0.54892805    -0.28800
H1239       H  0.69503135  0.01979308  0.55372345     0.15400
H1240       H  0.74503986  0.13007492  0.53938182     0.15900
C1241       C  0.52404962  0.21599582  0.99766536    -0.13700
C1242       C  0.54686810  0.25536731  0.51573711    -0.28800
H1243       H  0.50640111  0.22034540  0.97690877     0.15400
H1244       H  0.56237040  0.25000900  0.53721506     0.15900
C1245       C  0.40609280  0.93503603  0.96762928    -0.13700
C1246       C  0.37119060  0.93749718  0.94962426    -0.28800
H1247       H  0.40098456  0.89959162  0.97452240     0.15400
H1248       H  0.37606555  0.97261689  0.94215995     0.15900
C1249       C  0.51394691  0.04714685  0.61503045    -0.13700
C1250       C  0.50421257  0.07778124  0.63139798    -0.28800
H1251       H  0.51809354  0.01899752  0.62716770     0.15400
H1252       H  0.49729733  0.10415349  0.61924441     0.15900
C1253       C  0.58891198  0.08315096  0.88116141    -0.13700
C1254       C  0.54882882  0.05378721  0.86452476    -0.28800
H1255       H  0.62230262  0.10944375  0.86935222     0.15400
H1256       H  0.51656936  0.02549296  0.87634890     0.15900
C1257       C  0.76754663  0.25725177  0.99521721    -0.13700
C1258       C  0.72833152  0.24732985  0.51991402    -0.28800
H1259       H  0.76333137  0.23847600  0.97303415     0.15400
H1260       H  0.73086725  0.26622630  0.54180258     0.15900
loop_ 
_geom_bond_atom_site_label_1 
_geom_bond_atom_site_label_2 
_geom_bond_distance 
_geom_bond_site_symmetry_2 
_ccdc_geom_bond_type 
Zn1           O6   2.000       .  S
Zn1          O10   1.985       .  S
Zn1          O17   2.023       .  S
Zn1         O635   1.915       .  S
Zn2           O7   2.125       .  S
Zn2           O9   2.125   1_544  S
Zn2          O13   2.039       .  S
Zn2           O5   1.919       .  S
Zn3           O8   2.027       .  S
Zn3          O11   1.980       .  S
Zn3          O14   1.990       .  S
Zn3         O635   1.921       .  S
Zn4          O12   2.008       .  S
Zn4          O15   1.982       .  S
Zn4          O16   1.959       .  S
Zn4           O5   1.899       .  S
O5         Zn631   1.914   1_554  S
O5         Zn633   1.920   1_554  S
O6           C18   1.274   1_545  A
O7           C19   1.289       .  A
O8           C20   1.275       .  A
O9          C648   1.295       .  A
O10          C20   1.272       .  A
O11         C649   1.270       .  A
O12          C21   1.272       .  A
O13          C22   1.275       .  A
O14         C651   1.273       .  A
O15          C22   1.270       .  A
O16         C653   1.269   1_554  A
O17          C23   1.274       .  A
C18         O639   1.297       .  A
C18         C615   1.498       .  S
C19         O641   1.269       .  A
C19         C607   1.499       .  S
C20         C623   1.466       .  S
C21         O644   1.271   1_554  A
C21         C628   1.460       .  S
C22         C619   1.469       .  S
C23         O646   1.268       .  A
C23         C611   1.465       .  S
Zn24         O29   2.018       .  S
Zn24         O33   2.044       .  S
Zn24         O40   2.005       .  S
Zn24         O28   1.925       .  S
Zn25         O30   2.033       .  S
Zn25         O32   2.130   1_545  S
Zn25         O36   2.141       .  S
Zn25         O28   1.922       .  S
Zn26         O31   1.954       .  S
Zn26         O34   1.981       .  S
Zn26         O37   2.010       .  S
Zn26         O28   1.901       .  S
Zn27         O35   1.985       .  S
Zn27         O38   2.003       .  S
Zn27         O39   2.026       .  S
Zn27         O28   1.919       .  S
O29          C41   1.276   1_545  A
O30          C42   1.274       .  A
O31          C43   1.268       .  A
O32          C41   1.296       .  A
O33          C43   1.277       .  A
O34          C42   1.271       .  A
O35          C44   1.271       .  A
O36          C45   1.291       .  A
O37          C44   1.273       .  A
O38          C45   1.271       .  A
O39          C46   1.276       .  A
O40          C46   1.274       .  A
C41         C599   1.500       .  S
C42         C624   1.466       .  S
C43         C596   1.471       .  S
C44         C603   1.463       .  S
C45         C591   1.505       .  S
C46         C620   1.469       .  S
Zn47         O52   1.959       .  S
Zn47         O56   2.004       .  S
Zn47         O63   1.937       .  S
Zn47         O51   1.893       .  S
Zn48         O53   2.013       .  S
Zn48         O55   2.040       .  S
Zn48         O59   2.005   1_554  S
Zn48         O51   1.924       .  S
Zn49         O54   1.988       .  S
Zn49         O57   1.975       .  S
Zn49         O60   1.953       .  S
Zn49        O681   1.890       .  S
Zn50         O58   2.067       .  S
Zn50         O61   2.114       .  S
Zn50         O62   2.174       .  S
Zn50        O681   1.927       .  S
O51        Zn679   1.877   1_554  S
O51        Zn680   1.922   1_554  S
O52          C64   1.268       .  A
O53         C695   1.273   1_554  A
O54         C696   1.268       .  A
O55          C64   1.275       .  A
O56          C66   1.271       .  A
O57          C65   1.270       .  A
O58          C67   1.278       .  A
O59         C698   1.275       .  A
O60          C67   1.266       .  A
O61          C68   1.295       .  A
O62         C699   1.296       .  A
O63          C69   1.265       .  A
C64         C583   1.457       .  S
C65         O683   1.275       .  A
C65         C576   1.450       .  S
C66         O684   1.268   1_554  A
C66         C612   1.459       .  S
C67         C588   1.466       .  S
C68         O689   1.278       .  A
C68         C580   1.494       .  S
C69         O692   1.298       .  A
C69         C571   1.507       .  S
Zn70         O75   2.004       .  S
Zn70         O79   1.990       .  S
Zn70         O86   2.026       .  S
Zn70         O74   1.908       .  S
Zn71         O76   1.955       .  S
Zn71         O78   2.005       .  S
Zn71         O82   1.966       .  S
Zn71         O74   1.912       .  S
Zn72         O77   2.123       .  S
Zn72         O80   2.146       .  S
Zn72         O83   2.039       .  S
Zn72         O74   1.921       .  S
Zn73         O81   1.992       .  S
Zn73         O84   2.008       .  S
Zn73         O85   1.973       .  S
Zn73         O74   1.896       .  S
O75          C87   1.275       .  A
O76          C88   1.267       .  A
O77          C89   1.296       .  A
O78          C87   1.270       .  A
O79          C89   1.273       .  A
O80          C88   1.292       .  A
O81          C90   1.274       .  A
O82          C91   1.271       .  A
O83          C90   1.274       .  A
O84          C91   1.273       .  A
O85          C92   1.271       .  A
O86          C92   1.274       .  A
C87         C584   1.472       .  S
C88         C560   1.501       .  S
C89         C564   1.490       .  S
C90         C587   1.480       .  S
C91         C567   1.458       .  S
C92         C604   1.470       .  S
Zn93         O98   1.956       .  S
Zn93        O102   1.993       .  S
Zn93        O109   1.973       .  S
Zn93         O97   1.909       .  S
Zn94         O99   2.123   1_655  S
Zn94        O101   2.123       .  S
Zn94        O105   2.019       .  S
Zn94         O97   1.916       .  S
Zn95        O100   2.002       .  S
Zn95        O103   1.997       .  S
Zn95        O106   2.018       .  S
Zn95         O97   1.909       .  S
Zn96        O104   1.958       .  S
Zn96        O107   1.997       .  S
Zn96        O108   2.024       .  S
Zn96         O97   1.900       .  S
O98         C110   1.267       .  A
O99         C111   1.295   1_455  A
O100        C112   1.274       .  A
O101        C110   1.289       .  A
O102        C112   1.271       .  A
O103        C111   1.273       .  A
O104        C113   1.270       .  A
O105        C114   1.273       .  A
O106        C113   1.274       .  A
O107        C114   1.273       .  A
O108        C115   1.275       .  A
O109        C115   1.270       .  A
C110        C543   1.494       .  S
C111        C548   1.494   1_655  S
C112        C555   1.461       .  S
C113        C568   1.464       .  S
C114        C552   1.466       .  S
C115        C595   1.464       .  S
Zn116       O121   1.973       .  S
Zn116       O125   1.959       .  S
Zn116       O132   2.019       .  S
Zn116       O120   1.907       .  S
Zn117       O122   2.135   1_654  S
Zn117       O124   2.023       .  S
Zn117       O128   2.138       .  S
Zn117       O120   1.928       .  S
Zn118       O123   2.017       .  S
Zn118       O126   1.997       .  S
Zn118       O129   1.998       .  S
Zn118       O750   1.906       .  S
Zn119       O127   2.013       .  S
Zn119       O130   1.986       .  S
Zn119       O131   1.954       .  S
Zn119       O750   1.899       .  S
O120       Zn748   1.917   1_554  S
O120       Zn749   1.908   1_554  S
O121        C133   1.271       .  A
O122        C764   1.296       .  A
O123        C135   1.274       .  A
O124        C133   1.273       .  A
O125        C765   1.269   1_554  A
O126        C134   1.273   1_655  A
O127        C136   1.273       .  A
O128        C137   1.291       .  A
O129        C136   1.274       .  A
O130        C767   1.269       .  A
O131        C768   1.269       .  A
O132        C138   1.272       .  A
C133        C556   1.462       .  S
C134        O752   1.294       .  A
C134        C539   1.492       .  S
C135        O755   1.272       .  A
C135        C627   1.469       .  S
C136        C551   1.466       .  S
C137        O760   1.267       .  A
C137        C535   1.498       .  S
C138        O761   1.268   1_554  A
C138        C575   1.457       .  S
Zn139       O144   1.987       .  S
Zn139       O148   1.957       .  S
Zn139       O155   1.991       .  S
Zn139       O143   1.889       .  S
Zn140       O145   1.950       .  S
Zn140       O147   1.985       .  S
Zn140       O151   1.978       .  S
Zn140       O143   1.891       .  S
Zn141       O146   2.159       .  S
Zn141       O149   2.064       .  S
Zn141       O152   2.118       .  S
Zn141       O143   1.915       .  S
Zn142       O150   2.040       .  S
Zn142       O153   2.018       .  S
Zn142       O154   2.018       .  S
Zn142       O143   1.911       .  S
O144        C156   1.274       .  A
O145        C157   1.268       .  A
O146        C158   1.294       .  A
O147        C156   1.268       .  A
O148        C158   1.266       .  A
O149        C157   1.278       .  A
O150        C159   1.279       .  A
O151        C160   1.268       .  A
O152        C159   1.294       .  A
O153        C160   1.273       .  A
O154        C161   1.277       .  A
O155        C161   1.274       .  A
C156        C531   1.457       .  S
C157        C528   1.460       .  S
C158        C600   1.506       .  S
C159        C520   1.501       .  S
C160        C515   1.459       .  S
C161        C523   1.463       .  S
Zn162       O167   1.999       .  S
Zn162       O171   2.016       .  S
Zn162       O178   2.014       .  S
Zn162       O166   1.912       .  S
Zn163       O168   1.971       .  S
Zn163       O170   2.013       .  S
Zn163       O174   1.996       .  S
Zn163       O166   1.918       .  S
Zn164       O169   2.117       .  S
Zn164       O172   2.122       .  S
Zn164       O175   2.055       .  S
Zn164       O166   1.930       .  S
Zn165       O173   1.957       .  S
Zn165       O176   2.006       .  S
Zn165       O177   1.966       .  S
Zn165       O166   1.896       .  S
O167        C179   1.275       .  A
O168        C180   1.270       .  A
O169        C181   1.294       .  A
O170        C179   1.273       .  A
O171        C181   1.275       .  A
O172        C180   1.289       .  A
O173        C812   1.267       .  A
O174        C183   1.271       .  A
O175        C812   1.276       .  A
O176        C183   1.270       .  A
O177        C184   1.270       .  A
O178        C184   1.273       .  A
C179        C524   1.470       .  S
C180        C579   1.496       .  S
C181        C507   1.496       .  S
C182        O803   1.278       .  A
C182        O805   1.271       .  A
C182        C527   1.464   1_556  S
C183        C511   1.466       .  S
C184        C503   1.464       .  S
Zn185       O190   1.997       .  S
Zn185       O194   1.946       .  S
Zn185       O201   2.003       .  S
Zn185       O189   1.905       .  S
Zn186       O191   2.014       .  S
Zn186       O193   2.034       .  S
Zn186       O197   2.012       .  S
Zn186       O189   1.924       .  S
Zn187       O192   2.143       .  S
Zn187       O195   2.129       .  S
Zn187       O198   2.063       .  S
Zn187       O189   1.941       .  S
Zn188       O196   1.948       .  S
Zn188       O199   1.987       .  S
Zn188       O200   1.995       .  S
Zn188       O189   1.898       .  S
O190        C832   1.274       .  A
O191        C203   1.275       .  A
O192        C204   1.293       .  A
O193        C832   1.275       .  A
O194        C204   1.266       .  A
O195        C203   1.294       .  A
O196        C205   1.271       .  A
O197        C206   1.275       .  A
O198        C205   1.276       .  A
O199        C206   1.269       .  A
O200        C207   1.269       .  A
O201        C207   1.272       .  A
C202        O820   1.273       .  A
C202        O823   1.276       .  A
C202        C491   1.466   1_556  S
C203        C487   1.500       .  S
C204        C540   1.498       .  S
C205        C496   1.472       .  S
C206        C512   1.461       .  S
C207        C499   1.463       .  S
Zn208       O213   1.964       .  S
Zn208       O217   1.951       .  S
Zn208       O224   1.989       .  S
Zn208       O212   1.868       .  S
Zn209       O214   2.018       .  S
Zn209       O216   2.028       .  S
Zn209       O220   2.052       .  S
Zn209       O212   1.926       .  S
Zn210       O215   2.065       .  S
Zn210       O218   2.121       .  S
Zn210       O221   2.158       .  S
Zn210       O212   1.928       .  S
Zn211       O219   1.919       .  S
Zn211       O222   1.958       .  S
Zn211       O223   2.010       .  S
Zn211       O212   1.896       .  S
O213        C225   1.272       .  A
O214        C226   1.277       .  A
O215        C227   1.277       .  A
O216        C225   1.276       .  A
O217        C227   1.270       .  A
O218        C226   1.295       .  A
O219        C228   1.262       .  A
O220        C229   1.276       .  A
O221        C228   1.294       .  A
O222        C229   1.269       .  A
O223        C230   1.272       .  A
O224        C230   1.270       .  A
C225        C480   1.465       .  S
C226        C484   1.494       .  S
C227        C492   1.480       .  S
C228        C563   1.499       .  S
C229        C495   1.462       .  S
C230        C516   1.470       .  S
Zn231       O236   1.997       .  S
Zn231       O240   1.991       .  S
Zn231       O247   1.950       .  S
Zn231       O235   1.895       .  S
Zn232       O237   1.996       .  S
Zn232       O239   2.044       .  S
Zn232       O243   2.013       .  S
Zn232       O235   1.921       .  S
Zn233       O238   1.989       .  S
Zn233       O241   1.976       .  S
Zn233       O244   1.961       .  S
Zn233       O235   1.887       .  S
Zn234       O242   2.076       .  S
Zn234       O245   2.117       .  S
Zn234       O246   2.147       .  S
Zn234       O235   1.926       .  S
O236        C248   1.274       .  A
O237        C249   1.270       .  A
O238        C250   1.269       .  A
O239        C248   1.278       .  A
O240        C250   1.272       .  A
O241        C249   1.271       .  A
O242        C251   1.278       .  A
O243        C252   1.275       .  A
O244        C251   1.272       .  A
O245        C252   1.293       .  A
O246        C253   1.294       .  A
O247        C253   1.266       .  A
C248        C472   1.470       .  S
C249        C532   1.461       .  S
C250        C479   1.458       .  S
C251        C475   1.480       .  S
C252        C468   1.493       .  S
C253        C547   1.499       .  S
Zn254       O259   2.068       .  S
Zn254       O263   2.179       .  S
Zn254       O270   2.129       .  S
Zn254       O258   1.917       .  S
Zn255       O260   1.991       .  S
Zn255       O262   1.962       .  S
Zn255       O266   1.970       .  S
Zn255       O258   1.876       .  S
Zn256       O261   1.937       .  S
Zn256       O264   1.990       .  S
Zn256       O267   1.952       .  S
Zn256       O258   1.883       .  S
Zn257       O265   2.071       .  S
Zn257       O268   2.038       .  S
Zn257       O269   2.034       .  S
Zn257       O258   1.927       .  S
O259        C271   1.277       .  A
O260        C272   1.270       .  A
O261        C273   1.264       .  A
O262        C271   1.271       .  A
O263        C273   1.298       .  A
O264        C272   1.270       .  A
O265        C904   1.278       .  A
O266        C275   1.272       .  A
O267        C904   1.267       .  A
O268        C275   1.277       .  A
O269        C276   1.279       .  A
O270        C276   1.297       .  A
C271        C471   1.483       .  S
C272        C504   1.458       .  S
C273        C616   1.505       .  S
C274        O895   1.277       .  A
C274        O897   1.266       .  A
C274        C476   1.468   1_556  S
C275        C500   1.471       .  S
C276        C464   1.499       .  S
Zn277       O282   2.138       .  S
Zn277       O286   2.146       .  S
Zn277       O293   2.071       .  S
Zn277       O281   1.929       .  S
Zn278       O283   2.024       .  S
Zn278       O285   1.982       .  S
Zn278       O289   2.010       .  S
Zn278       O281   1.928       .  S
Zn279       O284   2.033       .  S
Zn279       O287   2.019       .  S
Zn279       O290   2.038       .  S
Zn279       O281   1.912       .  S
Zn280       O288   1.951       .  S
Zn280       O291   2.002       .  S
Zn280       O292   1.947       .  S
Zn280       O281   1.894       .  S
O282        C294   1.293       .  A
O283        C295   1.275       .  A
O284        C296   1.277       .  A
O285        C294   1.272       .  A
O286        C296   1.297       .  A
O287        C295   1.279       .  A
O288        C297   1.269   1_545  A
O289        C298   1.272       .  A
O290        C297   1.277   1_545  A
O291        C298   1.268       .  A
O292        C299   1.265       .  A
O293        C299   1.278       .  A
C294        C488   1.501       .  S
C295        C456   1.482       .  S
C296        C592   1.507       .  S
C297        C447   1.467       .  S
C298        C459   1.467       .  S
C299        C451   1.469       .  S
Zn300       O305   2.177       .  S
Zn300       O309   2.122       .  S
Zn300       O316   2.053       .  S
Zn300       O304   1.924       .  S
Zn301       O306   1.955       .  S
Zn301       O308   1.928   1_545  S
Zn301       O312   1.989   1_545  S
Zn301       O304   1.876       .  S
Zn302       O307   2.034       .  S
Zn302       O310   2.070       .  S
Zn302       O313   2.020       .  S
Zn302       O304   1.923       .  S
Zn303       O311   1.986       .  S
Zn303       O314   2.034   1_545  S
Zn303       O315   1.975       .  S
Zn303       O304   1.899       .  S
O305        C317   1.297   1_545  A
O306        C318   1.266       .  A
O307        C319   1.278       .  A
O308        C317   1.264       .  A
O309        C319   1.296       .  A
O310        C318   1.278       .  A
O311        C320   1.271       .  A
O312        C321   1.270       .  A
O313        C320   1.277       .  A
O314        C321   1.276       .  A
O315        C952   1.274   1_554  A
O316        C952   1.276   1_554  A
C317        C467   1.503       .  S
C318        C455   1.466       .  S
C319        C572   1.499       .  S
C320        C440   1.458       .  S
C321        C444   1.469       .  S
C322        O945   1.273       .  A
C322        O946   1.276       .  A
C322        C452   1.482       .  S
Zn323       O328   1.980       .  S
Zn323       O332   1.956       .  S
Zn323       O339   1.941       .  S
Zn323       O327   1.875       .  S
Zn324       O329   1.960       .  S
Zn324       O331   2.007       .  S
Zn324       O335   1.938       .  S
Zn324       O327   1.893       .  S
Zn325       O330   2.024       .  S
Zn325       O333   2.053       .  S
Zn325       O336   2.017       .  S
Zn325       O327   1.936       .  S
Zn326       O334   2.125       .  S
Zn326       O337   2.182       .  S
Zn326       O338   2.077       .  S
Zn326       O327   1.920       .  S
O328        C340   1.266   1_655  A
O329        C341   1.268       .  A
O330        C342   1.275       .  A
O331        C340   1.271   1_655  A
O332        C342   1.270       .  A
O333        C341   1.277       .  A
O334        C343   1.296       .  A
O335        C344   1.265       .  A
O336        C343   1.277       .  A
O337        C344   1.298       .  A
O338        C345   1.280       .  A
O339        C345   1.265       .  A
C340        C448   1.460       .  S
C341        C432   1.462       .  S
C342        C427   1.454       .  S
C343        C559   1.497       .  S
C344        C463   1.506   1_655  S
C345        C436   1.466       .  S
Zn346       O351   2.022       .  S
Zn346       O355   1.991       .  S
Zn346       O362   2.010       .  S
Zn346       O350   1.903       .  S
Zn347       O352   2.031       .  S
Zn347       O354   2.002       .  S
Zn347       O358   2.004       .  S
Zn347       O350   1.907       .  S
Zn348       O353   2.019       .  S
Zn348       O356   1.974       .  S
Zn348       O359   1.975       .  S
Zn348       O350   1.917       .  S
Zn349       O357   2.145       .  S
Zn349       O360   2.031       .  S
Zn349       O361   2.136       .  S
Zn349       O350   1.926       .  S
O351        C363   1.273       .  A
O352        C364   1.275       .  A
O353        C995   1.272       .  A
O354        C363   1.274       .  A
O355        C995   1.275       .  A
O356        C364   1.271       .  A
O357        C366   1.291       .  A
O358        C367   1.277       .  A
O359        C366   1.269       .  A
O360        C367   1.274       .  A
O361        C368   1.296       .  A
O362        C368   1.275       .  A
C363        C443   1.476   1_655  S
C364        C423   1.467       .  S
C365        O983   1.273       .  A
C365        O985   1.277       .  A
C365        C431   1.478       .  S
C366        C519   1.505       .  S
C367        C435   1.480       .  S
C368        C536   1.499       .  S
Zn369       O374   1.989   1_545  S
Zn369       O378   1.945   1_545  S
Zn369       O385   1.947       .  S
Zn369       O373   1.882       .  S
Zn370       O375   1.945       .  S
Zn370       O377   1.994   1_545  S
Zn370       O381   1.986       .  S
Zn370       O373   1.883       .  S
Zn371       O376   2.165       .  S
Zn371       O379   2.070       .  S
Zn371       O382   2.121       .  S
Zn371       O373   1.932       .  S
Zn372       O380   1.996       .  S
Zn372       O383   2.030       .  S
Zn372       O384   2.062       .  S
Zn372       O373   1.929       .  S
O374        C386   1.268       .  A
O375        C387   1.268       .  A
O376        C388   1.296   1_545  A
O377        C386   1.269       .  A
O378        C388   1.266       .  A
O379        C387   1.276       .  A
O380        C389   1.275       .  A
O381        C390   1.270       .  A
O382        C389   1.296       .  A
O383        C390   1.278       .  A
O384        C391   1.276       .  A
O385        C391   1.265       .  A
C386        C428   1.449       .  S
C387        C420   1.483       .  S
C388        C508   1.503       .  S
C389        C544   1.492       .  S
C390        C460   1.463   1_655  S
C391        C415   1.464       .  S
Zn392       O397   1.990       .  S
Zn392       O401   2.002       .  S
Zn392       O408   1.959       .  S
Zn392       O396   1.900       .  S
Zn393       O398   2.044       .  S
Zn393       O400   2.011   1_545  S
Zn393       O404   2.014       .  S
Zn393       O396   1.931       .  S
Zn394       O399   1.995       .  S
Zn394       O402   1.980       .  S
Zn394       O405   1.953       .  S
Zn394       O396   1.906       .  S
Zn395       O403   2.153       .  S
Zn395       O406   2.123       .  S
Zn395       O407   2.062       .  S
Zn395       O396   1.939       .  S
O397        C409   1.271   1_545  A
O398        C410   1.274       .  A
O399        C411   1.268   1_655  A
O400        C409   1.274       .  A
O401        C411   1.270   1_655  A
O402        C410   1.270       .  A
O403        C412   1.294       .  A
O404        C413   1.275       .  A
O405        C412   1.267       .  A
O406        C413   1.294       .  A
O407       C1044   1.276       .  A
O408       C1044   1.271       .  A
C409        C424   1.457       .  S
C410        C419   1.463       .  S
C411        C439   1.467       .  S
C412        C483   1.500   1_655  S
C413        C608   1.498       .  S
C414       O1037   1.277       .  A
C414       O1038   1.271       .  A
C414        C416   1.477       .  S
C415        C416   1.341       .  D
C415        H417   1.090       .  S
C416        H418   1.086       .  S
C419        C420   1.346       .  D
C419        H421   1.087       .  S
C420        H422   1.086       .  S
C423        C424   1.342       .  D
C423        H425   1.087       .  S
C424        H426   1.087       .  S
C427        C428   1.339       .  D
C427        H429   1.087       .  S
C428        H430   1.088       .  S
C431        C432   1.340       .  D
C431        H433   1.086       .  S
C432        H434   1.087       .  S
C435        C436   1.340       .  D
C435        H437   1.087       .  S
C436        H438   1.087       .  S
C439        C440   1.339       .  D
C439        H441   1.088       .  S
C440        H442   1.086       .  S
C443        C444   1.343       .  D
C443        H445   1.087       .  S
C444        H446   1.087       .  S
C447        C448   1.347       .  D
C447        H449   1.086       .  S
C448        H450   1.087       .  S
C451        C452   1.342       .  D
C451        H453   1.088       .  S
C452        H454   1.086       .  S
C455        C456   1.341       .  D
C455        H457   1.088       .  S
C456        H458   1.086       .  S
C459        C460   1.337       .  D
C459        H461   1.088       .  S
C460        H462   1.087       .  S
C463        C464   1.373       .  D
C463        H465   1.085       .  S
C464        H466   1.086       .  S
C467        C468   1.372       .  D
C467        H469   1.086       .  S
C468        H470   1.086       .  S
C471        C472   1.346       .  D
C471        H473   1.086       .  S
C472        H474   1.087       .  S
C475        C476   1.341       .  D
C475        H477   1.086       .  S
C476        H478   1.089       .  S
C479        C480   1.342       .  D
C479        H481   1.087       .  S
C480        H482   1.087       .  S
C483        C484   1.370       .  D
C483        H485   1.086       .  S
C484        H486   1.087       .  S
C487        C488   1.369       .  D
C487        H489   1.087       .  S
C488        H490   1.086       .  S
C491        C492   1.346       .  D
C491        H493   1.087       .  S
C492        H494   1.086       .  S
C495        C496   1.339       .  D
C495        H497   1.090       .  S
C496        H498   1.086       .  S
C499        C500   1.344       .  D
C499        H501   1.087       .  S
C500        H502   1.087       .  S
C503        C504   1.342       .  D
C503        H505   1.087       .  S
C504        H506   1.087       .  S
C507        C508   1.372       .  D
C507        H509   1.086       .  S
C508        H510   1.086       .  S
C511        C512   1.339       .  D
C511        H513   1.088       .  S
C512        H514   1.087       .  S
C515        C516   1.343       .  D
C515        H517   1.087       .  S
C516        H518   1.087       .  S
C519        C520   1.369       .  D
C519        H521   1.085       .  S
C520        H522   1.087       .  S
C523        C524   1.341       .  D
C523        H525   1.088       .  S
C524        H526   1.086       .  S
C527        C528   1.336       .  D
C527        H529   1.088       .  S
C528        H530   1.086       .  S
C531        C532   1.339       .  D
C531        H533   1.087       .  S
C532        H534   1.088       .  S
C535        C536   1.369       .  D
C535        H537   1.086       .  S
C536        H538   1.087       .  S
C539        C540   1.370       .  D
C539        H541   1.086       .  S
C540        H542   1.086       .  S
C543        C544   1.368       .  D
C543        H545   1.086       .  S
C544        H546   1.087       .  S
C547        C548   1.371       .  D
C547        H549   1.086       .  S
C548        H550   1.086       .  S
C551        C552   1.340       .  D
C551        H553   1.087       .  S
C552        H554   1.087       .  S
C555        C556   1.339       .  D
C555        H557   1.087       .  S
C556        H558   1.087       .  S
C559        C560   1.370       .  D
C559        H561   1.087       .  S
C560        H562   1.086       .  S
C563        C564   1.373       .  D
C563        H565   1.086       .  S
C564        H566   1.086       .  S
C567        C568   1.344       .  D
C567        H569   1.087       .  S
C568        H570   1.087       .  S
C571        C572   1.374       .  D
C571        H573   1.085       .  S
C572        H574   1.086       .  S
C575       C1206   1.340       .  D
C575       H1207   1.087       .  S
C576       C1205   1.341       .  D
C576       H1208   1.086       .  S
H577       C1205   1.087       .  S
H578       C1206   1.087   1_556  S
C579        C580   1.366       .  D
C579        H581   1.086       .  S
C580        H582   1.087       .  S
C583        C584   1.338       .  D
C583        H585   1.088       .  S
C584        H586   1.087       .  S
C587        C588   1.342       .  D
C587        H589   1.087       .  S
C588        H590   1.087       .  S
C591        C592   1.370       .  D
C591        H593   1.086       .  S
C592        H594   1.087       .  S
C595        C596   1.348       .  D
C595        H597   1.087       .  S
C596        H598   1.086       .  S
C599        C600   1.373       .  D
C599        H601   1.086       .  S
C600        H602   1.086       .  S
C603        C604   1.345       .  D
C603        H605   1.087       .  S
C604        H606   1.086       .  S
C607        C608   1.368       .  D
C607        H609   1.086       .  S
C608        H610   1.087       .  S
C611       C1242   1.346       .  D
C611        H613   1.087       .  S
C612       C1241   1.345   1_554  D
C612        H614   1.087       .  S
C615        C616   1.375       .  D
C615        H617   1.086       .  S
C616        H618   1.086       .  S
C619        C620   1.344       .  D
C619        H621   1.087       .  S
C620        H622   1.087       .  S
C623        C624   1.344       .  D
C623        H625   1.087       .  S
C624        H626   1.087       .  S
C627       C1258   1.343       .  D
C627        H629   1.087       .  S
C628       C1257   1.345   1_554  D
C628        H630   1.087       .  S
Zn631       O636   1.998       .  S
Zn631       O640   1.998       .  S
Zn631       O647   2.020       .  S
Zn632       O637   2.137       .  S
Zn632       O639   2.140   1_545  S
Zn632       O643   2.037       .  S
Zn632       O635   1.920       .  S
Zn633       O638   2.014       .  S
Zn633       O641   1.975   1_556  S
Zn633       O644   1.976       .  S
Zn634       O642   2.008       .  S
Zn634       O645   1.974       .  S
Zn634       O646   1.950       .  S
Zn634       O635   1.898       .  S
O636        C648   1.273   1_545  A
O637        C649   1.291       .  A
O638        C650   1.273       .  A
O640        C650   1.273       .  A
O642        C651   1.272       .  A
O643        C652   1.275       .  A
O645        C652   1.270       .  A
O647        C653   1.274       .  A
C648       C1245   1.493       .  S
C649       C1237   1.503       .  S
C650       C1253   1.465       .  S
C651       C1258   1.465       .  S
C652       C1249   1.467       .  S
C653       C1241   1.463       .  S
Zn654       O659   2.020       .  S
Zn654       O663   2.037       .  S
Zn654       O670   2.001       .  S
Zn654       O658   1.917       .  S
Zn655       O660   2.025       .  S
Zn655       O662   2.120   1_545  S
Zn655       O666   2.116       .  S
Zn655       O658   1.920       .  S
Zn656       O661   1.952       .  S
Zn656       O664   1.984       .  S
Zn656       O667   2.015       .  S
Zn656       O658   1.898       .  S
Zn657       O665   1.989       .  S
Zn657       O668   1.987       .  S
Zn657       O669   2.017       .  S
Zn657       O658   1.915       .  S
O659        C671   1.275   1_545  A
O660        C672   1.274       .  A
O661        C673   1.269       .  A
O662        C671   1.294       .  A
O663        C673   1.277       .  A
O664        C672   1.271       .  A
O665        C674   1.271       .  A
O666        C675   1.288       .  A
O667        C674   1.273       .  A
O668        C675   1.270       .  A
O669        C676   1.275       .  A
O670        C676   1.275       .  A
C671       C1229   1.498       .  S
C672       C1254   1.465       .  S
C673       C1226   1.469       .  S
C674       C1233   1.465       .  S
C675       C1221   1.493       .  S
C676       C1250   1.465       .  S
Zn677       O682   1.959       .  S
Zn677       O686   1.991       .  S
Zn677       O693   1.932       .  S
Zn677       O681   1.890       .  S
Zn678       O683   2.017       .  S
Zn678       O685   2.046       .  S
Zn678       O689   2.018       .  S
Zn678       O681   1.930       .  S
Zn679       O684   1.976       .  S
Zn679       O687   1.978       .  S
Zn679       O690   1.961       .  S
Zn680       O688   2.061       .  S
Zn680       O691   2.127       .  S
Zn680       O692   2.183   1_556  S
O682        C694   1.267       .  A
O685        C694   1.275       .  A
O686        C696   1.270       .  A
O687        C695   1.271       .  A
O688        C697   1.278       .  A
O690        C697   1.268       .  A
O691        C698   1.296       .  A
O693        C699   1.264       .  A
C694       C1213   1.460       .  S
C695       C1206   1.453   1_556  S
C696       C1242   1.458       .  S
C697       C1218   1.467       .  S
C698       C1210   1.496       .  S
C699       C1201   1.504       .  S
Zn700       O705   2.005       .  S
Zn700       O709   2.015       .  S
Zn700       O716   2.035       .  S
Zn700       O704   1.914       .  S
Zn701       O706   1.966       .  S
Zn701       O708   2.018       .  S
Zn701       O712   1.991       .  S
Zn701       O704   1.927       .  S
Zn702       O707   2.129       .  S
Zn702       O710   2.142       .  S
Zn702       O713   2.040       .  S
Zn702       O704   1.931       .  S
Zn703       O711   1.990       .  S
Zn703       O714   2.010       .  S
Zn703       O715   1.970       .  S
Zn703       O704   1.902       .  S
O705        C717   1.276       .  A
O706        C718   1.269       .  A
O707        C719   1.296       .  A
O708        C717   1.273       .  A
O709        C719   1.275       .  A
O710        C718   1.292       .  A
O711        C720   1.273       .  A
O712        C721   1.272       .  A
O713        C720   1.274       .  A
O714        C721   1.273       .  A
O715        C722   1.270       .  A
O716        C722   1.275       .  A
C717       C1214   1.477       .  S
C718       C1190   1.501       .  S
C719       C1194   1.499       .  S
C720       C1217   1.480       .  S
C721       C1197   1.464       .  S
C722       C1234   1.472       .  S
Zn723       O728   1.980       .  S
Zn723       O732   1.999       .  S
Zn723       O739   1.969       .  S
Zn723       O727   1.912       .  S
Zn724       O729   2.127   1_655  S
Zn724       O731   2.130       .  S
Zn724       O735   2.012       .  S
Zn724       O727   1.921       .  S
Zn725       O730   1.995       .  S
Zn725       O733   2.002       .  S
Zn725       O736   2.031       .  S
Zn725       O727   1.911       .  S
Zn726       O734   1.971       .  S
Zn726       O737   1.986       .  S
Zn726       O738   2.019       .  S
Zn726       O727   1.899       .  S
O728        C740   1.269       .  A
O729        C741   1.295       .  A
O730        C742   1.274       .  A
O731        C740   1.290       .  A
O732        C742   1.272       .  A
O733        C741   1.274   1_655  A
O734        C743   1.271       .  A
O735        C744   1.272       .  A
O736        C743   1.275       .  A
O737        C744   1.273       .  A
O738        C745   1.274       .  A
O739        C745   1.269       .  A
C740       C1173   1.501       .  S
C741       C1178   1.497       .  S
C742       C1185   1.460       .  S
C743       C1198   1.472       .  S
C744       C1182   1.462       .  S
C745       C1225   1.461       .  S
Zn746       O751   1.984       .  S
Zn746       O755   1.986       .  S
Zn746       O762   2.030       .  S
Zn746       O750   1.909       .  S
Zn747       O752   2.118   1_655  S
Zn747       O754   2.013       .  S
Zn747       O758   2.128       .  S
Zn747       O750   1.919       .  S
Zn748       O753   2.024       .  S
Zn748       O756   2.005       .  S
Zn748       O759   1.995       .  S
Zn749       O757   2.000       .  S
Zn749       O760   1.970   1_556  S
Zn749       O761   1.957       .  S
O751        C763   1.273       .  A
O753        C765   1.274       .  A
O754        C763   1.272       .  A
O756        C764   1.274   1_655  A
O757        C766   1.271       .  A
O758        C767   1.289       .  A
O759        C766   1.274       .  A
O762        C768   1.274       .  A
C763       C1186   1.461       .  S
C764       C1169   1.498       .  S
C765       C1257   1.468       .  S
C766       C1181   1.461       .  S
C767       C1165   1.497       .  S
C768       C1205   1.466       .  S
Zn769       O774   2.006       .  S
Zn769       O778   1.947       .  S
Zn769       O785   1.987       .  S
Zn769       O773   1.896       .  S
Zn770       O775   1.948       .  S
Zn770       O777   1.992       .  S
Zn770       O781   1.978       .  S
Zn770       O773   1.877       .  S
Zn771       O776   2.166       .  S
Zn771       O779   2.068       .  S
Zn771       O782   2.109       .  S
Zn771       O773   1.925       .  S
Zn772       O780   2.032       .  S
Zn772       O783   2.012       .  S
Zn772       O784   2.010       .  S
Zn772       O773   1.920       .  S
O774        C786   1.274       .  A
O775        C787   1.273       .  A
O776        C788   1.295       .  A
O777        C786   1.268       .  A
O778        C788   1.265       .  A
O779        C787   1.280       .  A
O780        C789   1.278       .  A
O781        C790   1.271       .  A
O782        C789   1.292       .  A
O783        C790   1.272       .  A
O784        C791   1.277       .  A
O785        C791   1.273       .  A
C786       C1161   1.465       .  S
C787       C1158   1.476       .  S
C788       C1230   1.505       .  S
C789       C1150   1.499       .  S
C790       C1145   1.468       .  S
C791       C1153   1.459       .  S
Zn792       O797   1.995       .  S
Zn792       O801   2.021       .  S
Zn792       O808   2.016       .  S
Zn792       O796   1.909       .  S
Zn793       O798   1.956       .  S
Zn793       O800   2.002       .  S
Zn793       O804   1.972       .  S
Zn793       O796   1.906       .  S
Zn794       O799   2.124       .  S
Zn794       O802   2.130       .  S
Zn794       O805   2.000       .  S
Zn794       O796   1.916       .  S
Zn795       O803   2.025       .  S
Zn795       O806   2.049       .  S
Zn795       O807   1.996       .  S
Zn795       O796   1.912       .  S
O797        C809   1.274       .  A
O798        C810   1.265       .  A
O799        C811   1.295       .  A
O800        C809   1.271       .  A
O801        C811   1.276       .  A
O802        C810   1.289       .  A
O804        C813   1.272       .  A
O806        C813   1.277       .  A
O807        C814   1.274       .  A
O808        C814   1.274       .  A
C809       C1154   1.465       .  S
C810       C1209   1.498       .  S
C811       C1137   1.499       .  S
C812       C1157   1.465       .  S
C813       C1141   1.475       .  S
C814       C1133   1.471       .  S
Zn815       O820   1.994       .  S
Zn815       O824   1.954       .  S
Zn815       O831   1.993       .  S
Zn815       O819   1.907       .  S
Zn816       O821   2.038       .  S
Zn816       O823   2.032       .  S
Zn816       O827   2.031       .  S
Zn816       O819   1.927       .  S
Zn817       O822   2.160       .  S
Zn817       O825   2.120       .  S
Zn817       O828   2.077       .  S
Zn817       O819   1.937       .  S
Zn818       O826   1.948       .  S
Zn818       O829   1.981       .  S
Zn818       O830   1.984       .  S
Zn818       O819   1.901       .  S
O821        C833   1.279       .  A
O822        C834   1.295       .  A
O824        C834   1.266       .  A
O825        C833   1.294       .  A
O826        C835   1.270       .  A
O827        C836   1.275       .  A
O828        C835   1.279       .  A
O829        C836   1.268       .  A
O830        C837   1.267       .  A
O831        C837   1.271       .  A
C832       C1121   1.466       .  S
C833       C1117   1.502       .  S
C834       C1170   1.504       .  S
C835       C1126   1.481       .  S
C836       C1142   1.463       .  S
C837       C1129   1.459       .  S
Zn838       O843   1.955       .  S
Zn838       O847   1.937       .  S
Zn838       O854   1.974       .  S
Zn838       O842   1.873       .  S
Zn839       O844   2.018       .  S
Zn839       O846   2.026       .  S
Zn839       O850   2.037       .  S
Zn839       O842   1.920       .  S
Zn840       O845   2.085       .  S
Zn840       O848   2.118       .  S
Zn840       O851   2.157       .  S
Zn840       O842   1.920       .  S
Zn841       O849   1.960       .  S
Zn841       O852   2.001       .  S
Zn841       O853   2.009       .  S
Zn841       O842   1.896       .  S
O843        C855   1.268       .  A
O844        C856   1.277       .  A
O845        C857   1.280       .  A
O846        C855   1.273       .  A
O847        C857   1.269       .  A
O848        C856   1.294       .  A
O849        C858   1.268       .  A
O850        C859   1.277       .  A
O851        C858   1.295       .  A
O852        C859   1.275       .  A
O853        C860   1.274       .  A
O854        C860   1.267       .  A
C855       C1110   1.466       .  S
C856       C1114   1.493       .  S
C857       C1122   1.480       .  S
C858       C1193   1.504       .  S
C859       C1125   1.466       .  S
C860       C1146   1.460       .  S
Zn861       O866   2.004       .  S
Zn861       O870   1.999       .  S
Zn861       O877   1.959       .  S
Zn861       O865   1.894       .  S
Zn862       O867   2.007       .  S
Zn862       O869   2.048       .  S
Zn862       O873   2.028       .  S
Zn862       O865   1.915       .  S
Zn863       O868   1.984       .  S
Zn863       O871   1.993       .  S
Zn863       O874   1.972       .  S
Zn863       O865   1.886       .  S
Zn864       O872   2.068       .  S
Zn864       O875   2.121       .  S
Zn864       O876   2.148       .  S
Zn864       O865   1.919       .  S
O866        C878   1.275       .  A
O867        C879   1.272       .  A
O868        C880   1.269       .  A
O869        C878   1.280       .  A
O870        C880   1.274       .  A
O871        C879   1.272       .  A
O872        C881   1.277       .  A
O873        C882   1.277       .  A
O874        C881   1.274       .  A
O875        C882   1.294       .  A
O876        C883   1.294       .  A
O877        C883   1.267       .  A
C878       C1102   1.473       .  S
C879       C1162   1.468       .  S
C880       C1109   1.459       .  S
C881       C1105   1.478       .  S
C882       C1098   1.498       .  S
C883       C1177   1.501       .  S
Zn884       O889   2.066       .  S
Zn884       O893   2.166       .  S
Zn884       O900   2.122       .  S
Zn884       O888   1.916       .  S
Zn885       O890   2.018       .  S
Zn885       O892   1.976       .  S
Zn885       O896   1.973       .  S
Zn885       O888   1.887       .  S
Zn886       O891   1.930       .  S
Zn886       O894   1.993       .  S
Zn886       O897   1.949       .  S
Zn886       O888   1.880       .  S
Zn887       O895   2.073       .  S
Zn887       O898   2.022       .  S
Zn887       O899   2.026       .  S
Zn887       O888   1.932       .  S
O889        C901   1.278       .  A
O890        C902   1.273       .  A
O891        C903   1.264       .  A
O892        C901   1.273       .  A
O893        C903   1.296       .  A
O894        C902   1.269       .  A
O896        C905   1.273       .  A
O898        C905   1.276       .  A
O899        C906   1.278       .  A
O900        C906   1.296       .  A
C901       C1101   1.485       .  S
C902       C1134   1.466       .  S
C903       C1246   1.501       .  S
C904       C1106   1.467       .  S
C905       C1130   1.466       .  S
C906       C1094   1.496       .  S
Zn907       O912   2.143       .  S
Zn907       O916   2.130       .  S
Zn907       O923   2.070       .  S
Zn907       O911   1.927       .  S
Zn908       O913   2.029       .  S
Zn908       O915   1.985       .  S
Zn908       O919   1.986       .  S
Zn908       O911   1.920       .  S
Zn909       O914   2.008       .  S
Zn909       O917   2.008       .  S
Zn909       O920   2.039       .  S
Zn909       O911   1.909       .  S
Zn910       O918   1.966       .  S
Zn910       O921   2.000       .  S
Zn910       O922   1.961       .  S
Zn910       O911   1.889       .  S
O912        C924   1.292       .  A
O913        C925   1.275       .  A
O914        C926   1.275       .  A
O915        C924   1.272       .  A
O916        C926   1.295       .  A
O917        C925   1.277       .  A
O918        C927   1.270   1_545  A
O919        C928   1.272       .  A
O920        C927   1.275   1_545  A
O921        C928   1.269       .  A
O922        C929   1.267       .  A
O923        C929   1.278       .  A
C924       C1118   1.504       .  S
C925       C1086   1.482       .  S
C926       C1222   1.496       .  S
C927       C1077   1.474       .  S
C928       C1089   1.461       .  S
C929       C1081   1.472       .  S
Zn930       O935   2.178       .  S
Zn930       O939   2.120       .  S
Zn930       O946   2.057       .  S
Zn930       O934   1.920       .  S
Zn931       O936   1.970       .  S
Zn931       O938   1.945   1_545  S
Zn931       O942   1.996       .  S
Zn931       O934   1.878       .  S
Zn932       O937   2.023       .  S
Zn932       O940   2.055       .  S
Zn932       O943   2.017       .  S
Zn932       O934   1.923       .  S
Zn933       O941   1.978       .  S
Zn933       O944   2.014   1_545  S
Zn933       O945   1.966       .  S
Zn933       O934   1.883       .  S
O935        C947   1.298   1_545  A
O936        C948   1.269       .  A
O937        C949   1.277       .  A
O938        C947   1.266       .  A
O939        C949   1.296       .  A
O940        C948   1.277       .  A
O941        C950   1.272       .  A
O942        C951   1.272   1_545  A
O943        C950   1.275       .  A
O944        C951   1.273       .  A
C947       C1097   1.506       .  S
C948       C1085   1.465       .  S
C949       C1202   1.496       .  S
C950       C1070   1.467       .  S
C951       C1074   1.465       .  S
C952       C1082   1.482       .  S
Zn953       O958   2.022       .  S
Zn953       O962   1.978       .  S
Zn953       O969   1.944       .  S
Zn953       O957   1.897       .  S
Zn954       O959   1.948       .  S
Zn954       O961   1.985       .  S
Zn954       O965   1.937       .  S
Zn954       O957   1.871       .  S
Zn955       O960   2.011       .  S
Zn955       O963   2.048       .  S
Zn955       O966   2.016       .  S
Zn955       O957   1.925       .  S
Zn956       O964   2.126       .  S
Zn956       O967   2.177       .  S
Zn956       O968   2.058       .  S
Zn956       O957   1.924       .  S
O958        C970   1.272   1_655  A
O959        C971   1.266       .  A
O960        C972   1.276       .  A
O961        C970   1.269   1_655  A
O962        C972   1.269       .  A
O963        C971   1.275       .  A
O964        C973   1.296       .  A
O965        C974   1.266       .  A
O966        C973   1.277       .  A
O967        C974   1.298       .  A
O968        C975   1.276       .  A
O969        C975   1.270       .  A
C970       C1078   1.463       .  S
C971       C1062   1.460       .  S
C972       C1057   1.453       .  S
C973       C1189   1.498       .  S
C974       C1093   1.505   1_655  S
C975       C1066   1.477       .  S
Zn976       O981   2.037       .  S
Zn976       O985   2.004       .  S
Zn976       O992   2.017       .  S
Zn976       O980   1.909       .  S
Zn977       O982   2.015       .  S
Zn977       O984   1.972       .  S
Zn977       O988   1.967       .  S
Zn977       O980   1.896       .  S
Zn978       O983   2.018       .  S
Zn978       O986   1.985       .  S
Zn978       O989   1.975       .  S
Zn978       O980   1.916       .  S
Zn979       O987   2.140       .  S
Zn979       O990   2.048       .  S
Zn979       O991   2.129       .  S
Zn979       O980   1.930       .  S
O981        C993   1.275       .  A
O982        C994   1.272       .  A
O984        C993   1.270       .  A
O986        C994   1.272       .  A
O987        C996   1.291       .  A
O988        C997   1.269       .  A
O989        C996   1.270       .  A
O990        C997   1.276       .  A
O991        C998   1.295       .  A
O992        C998   1.276       .  A
C993       C1073   1.474   1_655  S
C994       C1053   1.467       .  S
C995       C1061   1.479   1_554  S
C996       C1149   1.502       .  S
C997       C1065   1.465       .  S
C998       C1166   1.499       .  S
Zn999      O1004   1.990   1_545  S
Zn999      O1008   1.963   1_545  S
Zn999      O1015   1.974       .  S
Zn999      O1003   1.917       .  S
Zn1000     O1005   1.944       .  S
Zn1000     O1007   1.992   1_545  S
Zn1000     O1011   1.969       .  S
Zn1000     O1003   1.900       .  S
Zn1001     O1006   2.157       .  S
Zn1001     O1009   2.081       .  S
Zn1001     O1012   2.123       .  S
Zn1001     O1003   1.943       .  S
Zn1002     O1010   2.015       .  S
Zn1002     O1013   2.015       .  S
Zn1002     O1014   2.051       .  S
Zn1002     O1003   1.939       .  S
O1004      C1016   1.267       .  A
O1005      C1017   1.267       .  A
O1006      C1018   1.295   1_545  A
O1007      C1016   1.269       .  A
O1008      C1018   1.269       .  A
O1009      C1017   1.278       .  A
O1010      C1019   1.276       .  A
O1011      C1020   1.268   1_655  A
O1012      C1019   1.294       .  A
O1013      C1020   1.274   1_655  A
O1014      C1021   1.275       .  A
O1015      C1021   1.269       .  A
C1016      C1058   1.463       .  S
C1017      C1050   1.486       .  S
C1018      C1138   1.504       .  S
C1019      C1174   1.499       .  S
C1020      C1090   1.452       .  S
C1021      C1045   1.463       .  S
Zn1022     O1027   1.984       .  S
Zn1022     O1031   1.990       .  S
Zn1022     O1038   1.951       .  S
Zn1022     O1026   1.894       .  S
Zn1023     O1028   2.038       .  S
Zn1023     O1030   2.009   1_545  S
Zn1023     O1034   2.023       .  S
Zn1023     O1026   1.923       .  S
Zn1024     O1029   1.999       .  S
Zn1024     O1032   2.007       .  S
Zn1024     O1035   1.953       .  S
Zn1024     O1026   1.896       .  S
Zn1025     O1033   2.148       .  S
Zn1025     O1036   2.121       .  S
Zn1025     O1037   2.071       .  S
Zn1025     O1026   1.934       .  S
O1027      C1039   1.269   1_545  A
O1028      C1040   1.277       .  A
O1029      C1041   1.273   1_655  A
O1030      C1039   1.273       .  A
O1031      C1041   1.268   1_655  A
O1032      C1040   1.276       .  A
O1033      C1042   1.293       .  A
O1034      C1043   1.276       .  A
O1035      C1042   1.267       .  A
O1036      C1043   1.294       .  A
C1039      C1054   1.458       .  S
C1040      C1049   1.471       .  S
C1041      C1069   1.461       .  S
C1042      C1113   1.500   1_655  S
C1043      C1238   1.500       .  S
C1044      C1046   1.481   1_554  S
C1045      C1046   1.343       .  D
C1045      H1047   1.087       .  S
C1046      H1048   1.086       .  S
C1049      C1050   1.350       .  D
C1049      H1051   1.087       .  S
C1050      H1052   1.086       .  S
C1053      C1054   1.340       .  D
C1053      H1055   1.088       .  S
C1054      H1056   1.087       .  S
C1057      C1058   1.338       .  D
C1057      H1059   1.087       .  S
C1058      H1060   1.088       .  S
C1061      C1062   1.341       .  D
C1061      H1063   1.086       .  S
C1062      H1064   1.087       .  S
C1065      C1066   1.343       .  D
C1065      H1067   1.088       .  S
C1066      H1068   1.086       .  S
C1069      C1070   1.342       .  D
C1069      H1071   1.087       .  S
C1070      H1072   1.087       .  S
C1073      C1074   1.345       .  D
C1073      H1075   1.086       .  S
C1074      H1076   1.087       .  S
C1077      C1078   1.345       .  D
C1077      H1079   1.086       .  S
C1078      H1080   1.087       .  S
C1081      C1082   1.342       .  D
C1081      H1083   1.088       .  S
C1082      H1084   1.086       .  S
C1085      C1086   1.342       .  D
C1085      H1087   1.087       .  S
C1086      H1088   1.086       .  S
C1089      C1090   1.336       .  D
C1089      H1091   1.088       .  S
C1090      H1092   1.087       .  S
C1093      C1094   1.372       .  D
C1093      H1095   1.085       .  S
C1094      H1096   1.086       .  S
C1097      C1098   1.373       .  D
C1097      H1099   1.086       .  S
C1098      H1100   1.086       .  S
C1101      C1102   1.347       .  D
C1101      H1103   1.086       .  S
C1102      H1104   1.087       .  S
C1105      C1106   1.340       .  D
C1105      H1107   1.086       .  S
C1106      H1108   1.089       .  S
C1109      C1110   1.343       .  D
C1109      H1111   1.087       .  S
C1110      H1112   1.087       .  S
C1113      C1114   1.369       .  D
C1113      H1115   1.086       .  S
C1114      H1116   1.086       .  S
C1117      C1118   1.368       .  D
C1117      H1119   1.087       .  S
C1118      H1120   1.085       .  S
C1121      C1122   1.348       .  D
C1121      H1123   1.088       .  S
C1122      H1124   1.086       .  S
C1125      C1126   1.348       .  D
C1125      H1127   1.088       .  S
C1126      H1128   1.086       .  S
C1129      C1130   1.342       .  D
C1129      H1131   1.087       .  S
C1130      H1132   1.087       .  S
C1133      C1134   1.343       .  D
C1133      H1135   1.087       .  S
C1134      H1136   1.087       .  S
C1137      C1138   1.372       .  D
C1137      H1139   1.086       .  S
C1138      H1140   1.086       .  S
C1141      C1142   1.345       .  D
C1141      H1143   1.087       .  S
C1142      H1144   1.087       .  S
C1145      C1146   1.341       .  D
C1145      H1147   1.087       .  S
C1146      H1148   1.087       .  S
C1149      C1150   1.367       .  D
C1149      H1151   1.085       .  S
C1150      H1152   1.087       .  S
C1153      C1154   1.339       .  D
C1153      H1155   1.088       .  S
C1154      H1156   1.086       .  S
C1157      C1158   1.343       .  D
C1157      H1159   1.089       .  S
C1158      H1160   1.086       .  S
C1161      C1162   1.341       .  D
C1161      H1163   1.087       .  S
C1162      H1164   1.087       .  S
C1165      C1166   1.367       .  D
C1165      H1167   1.086       .  S
C1166      H1168   1.087       .  S
C1169      C1170   1.373       .  D
C1169      H1171   1.086       .  S
C1170      H1172   1.086       .  S
C1173      C1174   1.369       .  D
C1173      H1175   1.086       .  S
C1174      H1176   1.087       .  S
C1177      C1178   1.371       .  D
C1177      H1179   1.086       .  S
C1178      H1180   1.086       .  S
C1181      C1182   1.339       .  D
C1181      H1183   1.087       .  S
C1182      H1184   1.087       .  S
C1185      C1186   1.339       .  D
C1185      H1187   1.087       .  S
C1186      H1188   1.087       .  S
C1189      C1190   1.369       .  D
C1189      H1191   1.087       .  S
C1190      H1192   1.086       .  S
C1193      C1194   1.372       .  D
C1193      H1195   1.086       .  S
C1194      H1196   1.086       .  S
C1197      C1198   1.345       .  D
C1197      H1199   1.087       .  S
C1198      H1200   1.086       .  S
C1201      C1202   1.372       .  D
C1201      H1203   1.085       .  S
C1202      H1204   1.086       .  S
C1209      C1210   1.370       .  D
C1209      H1211   1.086       .  S
C1210      H1212   1.087       .  S
C1213      C1214   1.340       .  D
C1213      H1215   1.087       .  S
C1214      H1216   1.087       .  S
C1217      C1218   1.343       .  D
C1217      H1219   1.087       .  S
C1218      H1220   1.087       .  S
C1221      C1222   1.366       .  D
C1221      H1223   1.086       .  S
C1222      H1224   1.087       .  S
C1225      C1226   1.348       .  D
C1225      H1227   1.087       .  S
C1226      H1228   1.086       .  S
C1229      C1230   1.373       .  D
C1229      H1231   1.086       .  S
C1230      H1232   1.085       .  S
C1233      C1234   1.346       .  D
C1233      H1235   1.087       .  S
C1234      H1236   1.086       .  S
C1237      C1238   1.370       .  D
C1237      H1239   1.086       .  S
C1238      H1240   1.087       .  S
C1241      H1243   1.087       .  S
C1242      H1244   1.087       .  S
C1245      C1246   1.373       .  D
C1245      H1247   1.086       .  S
C1246      H1248   1.086       .  S
C1249      C1250   1.343       .  D
C1249      H1251   1.087       .  S
C1250      H1252   1.087       .  S
C1253      C1254   1.341       .  D
C1253      H1255   1.087       .  S
C1254      H1256   1.087       .  S
C1257      H1259   1.087       .  S
C1258      H1260   1.087       .  S
