geometry optimzed in LAMMPS
_audit_creation_date              2020-12-01 
_audit_creation_method            'lammps2cif' 
_symmetry_space_group_name_H-M    'P1' 
_symmetry_Int_Tables_number       1 
_symmetry_cell_setting            triclinic 
loop_ 
_symmetry_equiv_pos_as_xyz 
  x,y,z 
_cell_length_a                    33.30256692 
_cell_length_b                    33.2313179034646 
_cell_length_c                    35.83830672896431 
_cell_angle_alpha                 90.53329790369297 
_cell_angle_beta                  89.94376768148908 
_cell_angle_gamma                 90.64176152826252 
loop_ 
_atom_site_label 
_atom_site_type_symbol 
_atom_site_fract_x 
_atom_site_fract_y 
_atom_site_fract_z 
_atom_site_charge 
Fe1        Fe  0.40961916  0.91468696  0.41938941     1.65800
Fe2        Fe  0.39097209  0.82017607  0.45354066     1.73200
Fe3        Fe  0.46877801  0.83682987  0.39371860     1.54400
O4          O  0.44499976  0.85673455  0.34425660    -0.80400
O5          O  0.44194248  0.79036788  0.47489196    -0.78700
O6          O  0.41715209  0.91488189  0.36202021    -0.82900
O7          O  0.46765580  0.93416310  0.42834583    -0.77700
O8          O  0.44333673  0.78092139  0.38345335    -0.79500
O9          O  0.39439378  0.85855234  0.49883742    -0.82200
C10         C  0.49935133  0.92401777  0.41145478     0.98500
C11         C  0.42754951  0.88957084  0.33701213     1.06000
O12         O  0.42299093  0.85728871  0.42237995    -1.11200
O13         O  0.33610802  0.84389166  0.43580906    -0.73700
O14         O  0.35014728  0.90314149  0.40997562    -0.77100
O15         O  0.50333968  0.88944680  0.39672716    -0.77800
C16         C  0.32561868  0.87538745  0.41851886     0.97400
O17         O  0.39944222  0.92072407  0.47588251    -0.75800
O18         O  0.38384781  0.77842474  0.41134644    -0.81000
C19         C  0.47957876  0.79415134  0.46873195     1.00100
C20         C  0.40965597  0.76413660  0.38913858     1.06000
O21         O  0.49374203  0.81541431  0.44214927    -0.76600
C22         C  0.39549213  0.89649967  0.50282571     1.04300
Fe23       Fe  0.41218689  0.61019571  0.09778668     1.65800
Fe24       Fe  0.39042996  0.70313051  0.06353797     1.73200
Fe25       Fe  0.46971208  0.69071692  0.12172226     1.54400
O26         O  0.44581356  0.67244658  0.17167479    -0.80400
O27         O  0.44138921  0.73399642  0.04060981    -0.78700
O28         O  0.42206557  0.61145785  0.15501737    -0.82900
O29         O  0.47050984  0.59430811  0.08694435    -0.77700
O30         O  0.44484260  0.74699579  0.12963750    -0.79500
O31         O  0.39333280  0.66460772  0.01837854    -0.82200
C32         C  0.50105951  0.60419443  0.10595436     0.98500
C33         C  0.43076715  0.63823552  0.17955875     1.06000
O34         O  0.42378777  0.66797017  0.09422032    -1.11200
O35         O  0.33620562  0.67688947  0.08317765    -0.73700
O36         O  0.35274882  0.61871671  0.10921089    -0.77100
O37         O  0.50428997  0.63854738  0.12140307    -0.77800
C38         C  0.32705188  0.64503835  0.10121807     0.97400
O39         O  0.40009466  0.60284244  0.04142198    -0.75800
O40         O  0.38357079  0.74504782  0.10560349    -0.81000
C41         C  0.47930442  0.72997348  0.04536407     1.00100
C42         C  0.41030850  0.76178507  0.12556713     1.06000
O43         O  0.49394650  0.70966699  0.07211325    -0.76600
C44         C  0.39514134  0.62673417  0.01440289     1.04300
Fe45       Fe  0.39386989  0.58395131  0.34861781     1.65800
Fe46       Fe  0.30192052  0.60608013  0.31513180     1.73200
Fe47       Fe  0.31350632  0.52427589  0.36864423     1.54400
O48         O  0.36586669  0.49048466  0.36855658    -0.80400
O49         O  0.26307197  0.61326509  0.35861144    -0.78700
O50         O  0.41028345  0.52606500  0.33641356    -0.82900
O51         O  0.39158708  0.57319450  0.40555935    -0.77700
O52         O  0.29615205  0.50048207  0.31692363    -0.79500
O53         O  0.32825253  0.65966946  0.33276448    -0.82200
C54         C  0.36396201  0.56445934  0.42898157     0.98500
C55         C  0.40024508  0.49465808  0.35380908     1.06000
O56         O  0.33677579  0.57160375  0.34404593    -1.11200
O57         O  0.33851987  0.60172725  0.26943327    -0.73700
O58         O  0.40071477  0.59702225  0.29240848    -0.77100
O59         O  0.33062215  0.54786158  0.41984912    -0.77800
C60         C  0.37627418  0.60072094  0.26542464     0.97400
O61         O  0.38477113  0.64315207  0.36145811    -0.75800
O62         O  0.27025411  0.55698785  0.29388135    -0.81000
C63         C  0.24406944  0.58540303  0.37478643     1.00100
C64         C  0.27535006  0.51906866  0.29277546     1.06000
O65         O  0.25683159  0.54955943  0.37548383    -0.76600
C66         C  0.35897180  0.66873898  0.35198981     1.04300
Fe67       Fe  0.08162984  0.57620563  0.16102249     1.65800
Fe68       Fe  0.16852150  0.60621628  0.19978094     1.73200
Fe69       Fe  0.16634038  0.52261151  0.14343184     1.54400
O70         O  0.12168696  0.48029969  0.15451475    -0.80400
O71         O  0.21952415  0.60960295  0.16594349    -0.78700
O72         O  0.06665857  0.51661380  0.15050275    -0.82900
O73         O  0.09179804  0.58315848  0.10562213    -0.77700
O74         O  0.19455425  0.50537695  0.19330330    -0.79500
O75         O  0.14851322  0.65470012  0.17077626    -0.82200
C76         C  0.11367634  0.56400865  0.08252420     0.98500
C77         C  0.08422044  0.48304465  0.14969308     1.06000
O78         O  0.13917507  0.56779741  0.16814187    -1.11200
O79         O  0.12068623  0.60950477  0.23793862    -0.73700
O80         O  0.07095816  0.56936755  0.21714144    -0.77100
O81         O  0.13951556  0.53772593  0.09217999    -0.77800
C82         C  0.08744086  0.59062357  0.24261938     0.97400
O83         O  0.08399778  0.63856625  0.16776807    -0.75800
O84         O  0.19113901  0.55990819  0.23064368    -0.81000
C85         C  0.23295107  0.58884407  0.13887503     1.00100
C86         C  0.19997668  0.52329151  0.22467701     1.06000
O87         O  0.21570382  0.55679154  0.12766228    -0.76600
C88         C  0.11248575  0.66400172  0.16491482     1.04300
Fe89       Fe  0.05954390  0.90972309  0.10361187     1.65800
Fe90       Fe  0.08335885  0.81577341  0.07314939     1.73200
Fe91       Fe  0.99970030  0.82958333  0.12476531     1.54400
O92         O  0.02239665  0.84927921  0.17616935    -0.80400
O93         O  0.03528094  0.78403120  0.05031401    -0.78700
O94         O  0.05001595  0.90902537  0.16085194    -0.82900
O95         O  0.00150541  0.92658979  0.09294065    -0.77700
O96         O  0.02382738  0.77284101  0.13360554    -0.79500
O97         O  0.08278175  0.85173426  0.02682014    -0.82200
C98         C  0.96932820  0.91601061  0.10896710     0.98500
C99         C  0.04004820  0.88253100  0.18485570     1.06000
O100        O  0.04765762  0.85205217  0.10032571    -1.11200
O101        O  0.13599595  0.84185923  0.09236682    -0.73700
O102        O  0.11915819  0.90192772  0.11465963    -0.77100
O103        O  0.96498305  0.88146957  0.12314036    -0.77800
C104        C  0.14481752  0.87501779  0.10804439     0.97400
O105        O  0.07141975  0.91454680  0.04705686    -0.75800
O106        O  0.08767295  0.77724215  0.11701085    -0.81000
C107        C  0.99753470  0.78924043  0.04833809     1.00100
C108        C  0.05916023  0.75910633  0.13317364     1.06000
O109        O  0.97803638  0.81002853  0.07245850    -0.76600
C110        C  0.07917171  0.88919029  0.02129620     1.04300
Fe111      Fe  0.06462218  0.60329036  0.41287167     1.65800
Fe112      Fe  0.08912741  0.69642058  0.44628341     1.73200
Fe113      Fe  0.00581740  0.68335948  0.39482572     1.54400
O114        O  0.03028558  0.66810890  0.34350003    -0.80400
O115        O  0.04016422  0.72512053  0.47130487    -0.78700
O116        O  0.05235567  0.60585263  0.35580284    -0.82900
O117        O  0.00692500  0.58653771  0.42572358    -0.77700
O118        O  0.02882626  0.74137077  0.38955726    -0.79500
O119        O  0.08930233  0.65851203  0.49083313    -0.82200
C120        C  0.97609356  0.59574623  0.40744503     0.98500
C121        C  0.04551582  0.63462055  0.33327608     1.06000
O122        O  0.05344668  0.66066689  0.41833068    -1.11200
O123        O  0.14144112  0.67150842  0.42513729    -0.73700
O124        O  0.12368287  0.61235655  0.40007699    -0.77100
O125        O  0.97245959  0.63003467  0.39283819    -0.77800
C126        C  0.14973096  0.63909112  0.40792366     0.97400
O127        O  0.07919726  0.59603102  0.46870214    -0.75800
O128        O  0.09309263  0.73729044  0.40384403    -0.81000
C129        C  0.00232351  0.71832740  0.47288405     1.00100
C130        C  0.06426044  0.75542640  0.38887798     1.06000
O131        O  0.98317125  0.69870731  0.44748391    -0.76600
C132        C  0.08682608  0.62077256  0.49510129     1.04300
Fe133      Fe  0.38909289  0.94148911  0.16840911     1.65800
Fe134      Fe  0.29743526  0.91402094  0.20065536     1.73200
Fe135      Fe  0.30679486  0.99543625  0.14525204     1.54400
O136        O  0.35784547  0.03236540  0.14576839    -0.80400
O137        O  0.25885104  0.90398657  0.15693384    -0.78700
O138        O  0.40234537  0.00059637  0.18018661    -0.82900
O139        O  0.38818923  0.95117806  0.11129061    -0.77700
O140        O  0.28470228  0.01951665  0.19504080    -0.79500
O141        O  0.32631616  0.86190018  0.18379990    -0.82200
C142        C  0.36085796  0.95747279  0.08716825     0.98500
C143        C  0.39214240  0.03039619  0.16092043     1.06000
O144        O  0.33133959  0.95029989  0.17172594    -1.11200
O145        O  0.33310608  0.92091507  0.24698575    -0.73700
O146        O  0.39533769  0.92947499  0.22480348    -0.77100
O147        O  0.32660255  0.97179605  0.09527495    -0.77800
C148        C  0.37073599  0.92410130  0.25149591     0.97400
O149        O  0.38286523  0.88156813  0.15607831    -0.75800
O150        O  0.26365919  0.96152295  0.22049204    -0.81000
C151        C  0.23963036  0.93055500  0.13964019     1.00100
C152        C  0.26370987  0.99977435  0.21866551     1.06000
O153        O  0.25191250  0.96665400  0.13751284    -0.76600
C154        C  0.35782452  0.85449629  0.16519719     1.04300
Fe155      Fe  0.08170682  0.93658877  0.35431970     1.65800
Fe156      Fe  0.17287024  0.91273550  0.31922091     1.73200
Fe157      Fe  0.16448562  0.99211861  0.37992147     1.54400
O158        O  0.12235884  0.03373574  0.36365818    -0.80400
O159        O  0.22027916  0.90980733  0.35692627    -0.78700
O160        O  0.06647820  0.99652429  0.36163054    -0.82900
O161        O  0.08632369  0.93063153  0.41063946    -0.77700
O162        O  0.20159122  0.01046197  0.33598969    -0.79500
O163        O  0.15113949  0.86120514  0.34373507    -0.82200
C164        C  0.10537870  0.95051605  0.43541446     0.98500
C165        C  0.08446212  0.03034341  0.36416525     1.06000
O166        O  0.13981223  0.94764440  0.35078308    -1.11200
O167        O  0.12956921  0.91019248  0.27712412    -0.73700
O168        O  0.07363251  0.94015486  0.29733797    -0.77100
O169        O  0.13135767  0.97770751  0.42779238    -0.77800
C170        C  0.09432314  0.92352413  0.27177654     0.97400
O171        O  0.08641592  0.87467225  0.35020812    -0.75800
O172        O  0.19874730  0.96147338  0.29271378    -0.81000
C173        C  0.22967894  0.92774720  0.38718484     1.00100
C174        C  0.21093336  0.99582575  0.30420352     1.06000
O175        O  0.20985405  0.95694288  0.40030796    -0.76600
C176        C  0.11557506  0.85054136  0.35147952     1.04300
Fe177      Fe  0.57856972  0.44445098  0.15316792     1.65800
Fe178      Fe  0.66317743  0.41718301  0.19651922     1.73200
Fe179      Fe  0.66472367  0.49867451  0.13974579     1.54400
O180        O  0.63769586  0.48707192  0.08842717    -0.80400
O181        O  0.68340162  0.46442498  0.22973437    -0.78700
O182        O  0.59017956  0.43967727  0.09730993    -0.82900
O183        O  0.56566286  0.50450521  0.14529673    -0.77700
O184        O  0.71093738  0.46286466  0.12207824    -0.79500
O185        O  0.61330164  0.41007723  0.23116076    -0.82200
C186        C  0.58402012  0.53815097  0.14668317     0.98500
C187        C  0.61254868  0.46092533  0.07633142     1.06000
O188        O  0.63563127  0.45403157  0.16338443    -1.11200
O189        O  0.64645739  0.36823227  0.16453483    -0.73700
O190        O  0.58197486  0.38198424  0.15684215    -0.77100
O191        O  0.62136637  0.54092713  0.15353273    -0.77800
C192        C  0.61123600  0.35778726  0.15526551     0.97400
O193        O  0.56442143  0.44872475  0.20928116    -0.75800
O194        O  0.71650420  0.41744303  0.16691421    -0.81000
C195        C  0.70175100  0.49650738  0.21994688     1.00100
C196        C  0.72942770  0.43465419  0.13779068     1.06000
O197        O  0.69750650  0.51239460  0.18795064    -0.76600
C198        C  0.57946077  0.42712385  0.23469697     1.04300
Fe199      Fe  0.89397281  0.43603361  0.35611116     1.65800
Fe200      Fe  0.80532172  0.41397165  0.31729265     1.73200
Fe201      Fe  0.81309624  0.49179546  0.37880019     1.54400
O202        O  0.84773853  0.48054330  0.42635723    -0.80400
O203        O  0.78610421  0.46370949  0.28879770    -0.78700
O204        O  0.88487382  0.42711771  0.41146523    -0.82900
O205        O  0.90949031  0.49564498  0.36733831    -0.77700
O206        O  0.76948173  0.45515504  0.40057231    -0.79500
O207        O  0.85232710  0.40762747  0.27857728    -0.82200
C208        C  0.89238080  0.52963609  0.36622006     0.98500
C209        C  0.86874106  0.45029655  0.43534262     1.06000
O210        O  0.83728872  0.44763951  0.35047382    -1.11200
O211        O  0.82181997  0.36237085  0.34429370    -0.73700
O212        O  0.88743328  0.37401684  0.34797126    -0.77100
O213        O  0.85513028  0.53291973  0.35986058    -0.77800
C214        C  0.85722949  0.35034941  0.34981610     0.97400
O215        O  0.90451476  0.44382320  0.30000824    -0.75800
O216        O  0.75455458  0.41571207  0.35168178    -0.81000
C217        C  0.76709095  0.49321283  0.30271144     1.00100
C218        C  0.74630723  0.43073681  0.38361541     1.06000
O219        O  0.77328572  0.50630320  0.33578097    -0.76600
C220        C  0.88682018  0.42409413  0.27419875     1.04300
Fe221      Fe  0.91046664  0.41019505  0.10462309     1.65800
Fe222      Fe  0.88173235  0.31715400  0.07380313     1.73200
Fe223      Fe  0.96758688  0.32872596  0.12181667     1.54400
O224        O  0.00315309  0.38112556  0.12311668    -0.80400
O225        O  0.87817395  0.27736006  0.11697207    -0.78700
O226        O  0.96857228  0.42573617  0.09186732    -0.82900
O227        O  0.92237248  0.40738298  0.16166333    -0.77700
O228        O  0.98696597  0.31215108  0.06783709    -0.79500
O229        O  0.83100630  0.34370001  0.09611972    -0.82200
C230        C  0.93030079  0.37901458  0.18434913     0.98500
C231        C  0.99966511  0.41590334  0.10941334     1.06000
O232        O  0.91966458  0.35242585  0.09990115    -1.11200
O233        O  0.88171002  0.35419822  0.02847206    -0.73700
O234        O  0.89717816  0.41650609  0.04848888    -0.77100
O235        O  0.94557950  0.34542973  0.17408723    -0.77800
C236        C  0.88759944  0.39141777  0.02287815     0.97400
O237        O  0.85083805  0.40374535  0.11744546    -0.75800
O238        O  0.92823150  0.28579690  0.04802490    -0.81000
C239        C  0.90729349  0.25795022  0.12991550     1.00100
C240        C  0.96590678  0.29182824  0.04407423     1.06000
O241        O  0.94298060  0.27129855  0.12807044    -0.76600
C242        C  0.82400625  0.37711656  0.11197325     1.04300
Fe243      Fe  0.91289378  0.09908489  0.40583383     1.65800
Fe244      Fe  0.88031727  0.19117000  0.43337904     1.73200
Fe245      Fe  0.96750056  0.18248229  0.38724465     1.54400
O246        O  0.00349129  0.13109487  0.38640387    -0.80400
O247        O  0.87725000  0.23013703  0.38921436    -0.78700
O248        O  0.97062899  0.08842340  0.42188431    -0.82900
O249        O  0.92730702  0.10086569  0.34880132    -0.77700
O250        O  0.98576320  0.19999894  0.44110188    -0.79500
O251        O  0.83074154  0.16074705  0.41047238    -0.82200
C252        C  0.93237152  0.12981847  0.32577705     0.98500
C253        C  0.00086157  0.09741399  0.40250160     1.06000
O254        O  0.91978616  0.15724537  0.40904182    -1.11200
O255        O  0.87943050  0.15547438  0.47979361    -0.73700
O256        O  0.89634957  0.09331078  0.46169570    -0.77100
O257        O  0.94585309  0.16458301  0.33549291    -0.77800
C258        C  0.88511241  0.11855889  0.48644366     0.97400
O259        O  0.85446020  0.10194841  0.39039345    -0.75800
O260        O  0.92623252  0.22483897  0.45952350    -0.81000
C261        C  0.90652520  0.25105541  0.37761560     1.00100
C262        C  0.96390499  0.21963794  0.46439857     1.06000
O263        O  0.94230799  0.23900003  0.38049810    -0.76600
C264        C  0.82616881  0.12641863  0.39490522     1.04300
Fe265      Fe  0.57037784  0.08216491  0.36014479     1.65800
Fe266      Fe  0.65006587  0.11126690  0.30827505     1.73200
Fe267      Fe  0.66129562  0.03982977  0.37349459     1.54400
O268        O  0.64619531  0.06642535  0.42351875    -0.80400
O269        O  0.68952561  0.06685790  0.29005816    -0.78700
O270        O  0.58036289  0.07502921  0.41677231    -0.82900
O271        O  0.55998475  0.02124638  0.35421561    -0.77700
O272        O  0.71071303  0.07833915  0.37215016    -0.79500
O273        O  0.60872625  0.09049517  0.27065103    -0.82200
C274        C  0.57914221  0.99292689  0.36950236     0.98500
C275        C  0.61203660  0.07540635  0.43651050     1.06000
O276        O  0.62699853  0.07708222  0.34683262    -1.11200
O277        O  0.61450807  0.16082071  0.32053515    -0.73700
O278        O  0.57696549  0.14284220  0.36907155    -0.77100
O279        O  0.61573962  0.99638777  0.37946883    -0.77800
C280        C  0.59195347  0.16939141  0.34794788     0.97400
O281        O  0.55255900  0.09170480  0.30486459    -0.75800
O282        O  0.69258669  0.13488025  0.34427012    -0.81000
C283        C  0.69677933  0.03017857  0.29726959     1.00100
C284        C  0.71689600  0.11506173  0.36382670     1.06000
O285        O  0.68097151  0.01204329  0.32482532    -0.76600
C286        C  0.57084627  0.09161321  0.27362322     1.04300
Fe287      Fe  0.88763039  0.07441670  0.15501409     1.65800
Fe288      Fe  0.80220099  0.09951063  0.19774679     1.73200
Fe289      Fe  0.80241395  0.02178342  0.13543472     1.54400
O290        O  0.83415892  0.03408223  0.08574943    -0.80400
O291        O  0.78175029  0.05076757  0.22716872    -0.78700
O292        O  0.87732702  0.08400032  0.09987980    -0.82900
O293        O  0.90006340  0.01478367  0.14301123    -0.77700
O294        O  0.75856364  0.05992540  0.11726756    -0.79500
O295        O  0.85137549  0.10380549  0.23424101    -0.82200
C296        C  0.88176078  0.98107597  0.14371501     0.98500
C297        C  0.85837665  0.06233964  0.07626580     1.06000
O298        O  0.83052426  0.06471167  0.16292451    -1.11200
O299        O  0.82007364  0.15013683  0.16978222    -0.73700
O300        O  0.88476843  0.13643304  0.16365335    -0.77100
O301        O  0.84422140  0.97839966  0.14995504    -0.77800
C302        C  0.85571066  0.16084993  0.16241701     0.97400
O303        O  0.89995346  0.06542183  0.21062488    -0.75800
O304        O  0.74937986  0.10055082  0.16628776    -0.81000
C305        C  0.76126471  0.02110364  0.21474827     1.00100
C306        C  0.73831067  0.08593998  0.13492412     1.06000
O307        O  0.76531510  0.00731390  0.18148789    -0.76600
C308        C  0.88470860  0.08554308  0.23726379     1.04300
Fe309      Fe  0.55928200  0.41923099  0.40276117     1.65800
Fe310      Fe  0.58421732  0.33909258  0.45186389     1.73200
Fe311      Fe  0.50710692  0.33189578  0.39166235     1.54400
O312        O  0.46393103  0.37530110  0.40154088    -0.80400
O313        O  0.57959300  0.28114316  0.43070989    -0.78700
O314        O  0.49977709  0.43114977  0.39190899    -0.82900
O315        O  0.56654372  0.40543215  0.34776461    -0.77700
O316        O  0.49188278  0.30383374  0.44327831    -0.81100
O317        O  0.63291586  0.34909155  0.41796961    -0.82200
C318        C  0.54581934  0.38249483  0.32657966     0.98500
C319        C  0.46642343  0.41239895  0.39364198     1.06000
O320        O  0.54962252  0.36326435  0.41506948    -1.11200
O321        O  0.59468112  0.39284080  0.48027496    -0.73700
O322        O  0.55054641  0.43561191  0.45764905    -0.77100
O323        O  0.52047318  0.35639273  0.33875350    -0.77800
C324        C  0.57278294  0.42363063  0.48376176     0.97400
O325        O  0.62169294  0.41434378  0.40967961    -0.75800
O326        O  0.53574642  0.32830366  0.48553662    -0.81000
C327        C  0.56766675  0.26658249  0.39989640     1.00100
C328        C  0.50456928  0.30785005  0.47704078     1.06000
O329        O  0.54550376  0.28592704  0.37792648    -0.76600
C330        C  0.64455111  0.38376653  0.40792670     1.04300
Fe331      Fe  0.55277627  0.10662541  0.11076682     1.65800
Fe332      Fe  0.58377965  0.19157699  0.07126972     1.73200
Fe333      Fe  0.49703596  0.19063489  0.12162569     1.54400
O334        O  0.45709579  0.14568488  0.10554919    -0.80400
O335        O  0.58063002  0.24524855  0.10113390    -0.78700
O336        O  0.49297059  0.09208659  0.11873177    -0.82900
O337        O  0.55594125  0.11835674  0.16615344    -0.77700
O338        O  0.48568783  0.22045575  0.07071606    -0.79500
O339        O  0.62961892  0.17547079  0.10653370    -0.82200
C340        C  0.53150151  0.13757685  0.18677645     0.98500
C341        C  0.45950084  0.10927003  0.11505131     1.06000
O342        O  0.54403773  0.16346237  0.10132096    -1.11200
O343        O  0.59236083  0.14130342  0.03653938    -0.73700
O344        O  0.54849032  0.09418105  0.05486045    -0.77100
O345        O  0.50623251  0.16304033  0.17413276    -0.77800
C346        C  0.57191868  0.10912898  0.03064564     0.97400
O347        O  0.61546273  0.11032915  0.10728549    -0.75800
O348        O  0.54017506  0.21013757  0.03502286    -0.81000
C349        C  0.55936963  0.25847177  0.12790321     1.00100
C350        C  0.50488316  0.22339991  0.03978877     1.06000
O351        O  0.52951389  0.23933387  0.14080300    -0.76600
C352        C  0.63963170  0.13962504  0.11292092     1.04300
C353        C  0.48587297  0.28542539  0.50824540    -0.15100
C354        C  0.48778159  0.24482776  0.00751343    -0.30300
H355        H  0.48668741  0.30052581  0.53530087     0.13900
H356        H  0.49142400  0.22991867  0.98059909     0.14500
C357        C  0.69930445  0.09732478  0.11876640    -0.15100
C358        C  0.68037655  0.13169064  0.12724934    -0.30300
H359        H  0.68546310  0.07628976  0.09909880     0.13900
H360        H  0.69509667  0.15440838  0.14460156     0.14500
C361        C  0.57878032  0.22509782  0.39068191    -0.15100
C362        C  0.58260846  0.21177172  0.35547611    -0.30300
H363        H  0.58478618  0.20496878  0.41373058     0.13900
H364        H  0.58020237  0.23240071  0.33225009     0.14500
C365        C  0.72763349  0.00667122  0.23848792    -0.15100
C366        C  0.72938401  0.01085096  0.27583483    -0.30300
H367        H  0.69848126  0.00372501  0.22509747     0.13900
H368        H  0.75878365  0.01311874  0.28886590     0.14500
C369        C  0.60950452  0.08882674  0.47558991    -0.15100
C370        C  0.57529138  0.08885645  0.99427141    -0.30300
H371        H  0.63666725  0.10049650  0.48880536     0.13900
H372        H  0.54863849  0.07454078  0.98244630     0.14500
C373        C  0.54837872  0.09415584  0.23877471    -0.15100
C374        C  0.53387031  0.12963468  0.22716319    -0.30300
H375        H  0.55386235  0.07034090  0.21846634     0.13900
H376        H  0.52916460  0.15423375  0.24681397     0.14500
C377        C  0.88099336  0.10654982  0.02620292    -0.15100
C378        C  0.86498467  0.07091837  0.03628054    -0.30300
H379        H  0.88761024  0.12921444  0.04746376     0.13900
H380        H  0.85520912  0.04920556  0.01524308     0.14500
C381        C  0.91963101  0.12377655  0.28653010    -0.15100
C382        C  0.90613266  0.08813496  0.27316816    -0.30300
H383        H  0.91775908  0.15022688  0.26900709     0.13900
H384        H  0.90882114  0.06095658  0.28952840     0.14500
C385        C  0.78668010  0.11171764  0.38246045    -0.15100
C386        C  0.75453995  0.13459454  0.37647394    -0.30300
H387        H  0.78444472  0.07951027  0.37692617     0.13900
H388        H  0.75650315  0.16714655  0.37913501     0.14500
C389        C  0.90023785  0.21783201  0.14597742    -0.15100
C390        C  0.86307052  0.20287486  0.15138265    -0.30300
H391        H  0.92626106  0.19957249  0.15204455     0.13900
H392        H  0.83708710  0.22149945  0.14614125     0.14500
C393        C  0.98334522  0.27628548  0.00856813    -0.15100
C394        C  0.98032663  0.23435437  0.50069467    -0.30300
H395        H  0.98343169  0.29727292  0.98550734     0.13900
H396        H  0.97610558  0.21373065  0.52375631     0.14500
C397        C  0.91889524  0.38472926  0.22402169    -0.15100
C398        C  0.90639843  0.42049060  0.23748272    -0.30300
H399        H  0.91772521  0.35844078  0.24183350     0.13900
H400        H  0.90873618  0.44739579  0.22061556     0.14500
C401        C  0.87425632  0.44088450  0.47495503    -0.15100
C402        C  0.88376766  0.40462311  0.98424531    -0.30300
H403        H  0.87085417  0.46433454  0.49601477     0.13900
H404        H  0.88577815  0.38116910  0.96296371     0.14500
C405        C  0.89982443  0.29154108  0.36228565    -0.15100
C406        C  0.86310208  0.30764340  0.35939081    -0.30300
H407        H  0.92619756  0.30952640  0.35532655     0.13900
H408        H  0.83663099  0.28955660  0.36578097     0.14500
C409        C  0.70714007  0.42218136  0.40100684    -0.15100
C410        C  0.68575869  0.38869920  0.39370938    -0.30300
H411        H  0.69509480  0.44470366  0.42003681     0.13900
H412        H  0.69870319  0.36453814  0.37715594     0.14500
C413        C  0.76855041  0.42315879  0.12238664    -0.15100
C414        C  0.78300070  0.38573589  0.12476361    -0.30300
H415        H  0.78611338  0.44636427  0.10845255     0.13900
H416        H  0.76444848  0.36142110  0.13563988     0.14500
C417        C  0.73408212  0.51212096  0.24447061    -0.15100
C418        C  0.73237700  0.50816054  0.28160016    -0.30300
H419        H  0.76312953  0.51697153  0.23130482     0.13900
H420        H  0.70326589  0.50491793  0.29503062     0.14500
C421        C  0.60432625  0.31627388  0.14176037    -0.15100
C422        C  0.56807246  0.29853074  0.14402149    -0.30300
H423        H  0.62948918  0.29995598  0.12992969     0.13900
H424        H  0.54374102  0.31394609  0.15823582     0.14500
C425        C  0.57591096  0.44588363  0.01897949    -0.15100
C426        C  0.61091654  0.45299131  0.03620798    -0.30300
H427        H  0.54532812  0.44977211  0.53418048     0.13900
H428        H  0.63909518  0.44888426  0.02138403     0.14500
C429        C  0.55831157  0.42245685  0.27049684    -0.15100
C430        C  0.55315690  0.38604897  0.28618554    -0.30300
H431        H  0.55055729  0.44958293  0.28593608     0.13900
H432        H  0.55854990  0.35878836  0.27005969     0.14500
C433        C  0.06000401  0.06666177  0.37041373    -0.15100
C434        C  0.03142285  0.06599910  0.39704220    -0.30300
H435        H  0.06574764  0.09355049  0.35418082     0.13900
H436        H  0.02763875  0.03883940  0.41346595     0.14500
C437        C  0.42275212  0.08615125  0.12429708    -0.15100
C438        C  0.42302655  0.06155259  0.15402521    -0.30300
H439        H  0.39623029  0.08877222  0.10692367     0.13900
H440        H  0.44993705  0.06038314  0.17115770     0.14500
C441        C  0.24080978  0.01713100  0.28084357    -0.15100
C442        C  0.23531056  0.02007726  0.24386790    -0.30300
H443        H  0.27137710  0.01674235  0.29141589     0.13900
H444        H  0.20455759  0.02003600  0.23374903     0.14500
C445        C  0.94552512  0.56404084  0.40116117    -0.15100
C446        C  0.91671974  0.56591075  0.37485805    -0.30300
H447        H  0.94953706  0.53606719  0.41617054     0.13900
H448        H  0.91103722  0.59370431  0.36016088     0.14500
C449        C  0.07126359  0.79484041  0.37145139    -0.15100
C450        C  0.10833086  0.80887054  0.36376114    -0.30300
H451        H  0.04521474  0.81320941  0.36576981     0.13900
H452        H  0.13425801  0.79000233  0.36845760     0.14500
C453        C  0.93770207  0.94680310  0.11275044    -0.15100
C454        C  0.90575820  0.94444218  0.13601282    -0.30300
H455        H  0.94359580  0.97506563  0.09857653     0.13900
H456        H  0.89810957  0.91644325  0.14983070     0.14500
C457        C  0.18654604  0.88266290  0.11957442    -0.15100
C458        C  0.20047633  0.92053525  0.12314807    -0.30300
H459        H  0.20567818  0.85726324  0.12560902     0.13900
H460        H  0.18169923  0.94551734  0.11497130     0.14500
C461        C  0.97791186  0.77183860  0.01464159    -0.15100
C462        C  0.98209373  0.73129103  0.50780833    -0.30300
H463        H  0.97425277  0.79254297  0.99164793     0.13900
H464        H  0.98818733  0.71191063  0.53136276     0.14500
C465        C  0.05095776  0.89051190  0.22442191    -0.15100
C466        C  0.07758388  0.91980850  0.23387892    -0.30300
H467        H  0.03975704  0.87015091  0.24568935     0.13900
H468        H  0.09114820  0.93848143  0.21246996     0.14500
C469        C  0.08416759  0.90292115  0.98280975    -0.15100
C470        C  0.09758111  0.94043482  0.47473631    -0.30300
H471        H  0.07921864  0.88058624  0.96086649     0.13900
H472        H  0.10582964  0.96186566  0.49657054     0.14500
C473        C  0.05990395  0.44632023  0.14145794    -0.15100
C474        C  0.03068405  0.44760855  0.11543017    -0.30300
H475        H  0.06585565  0.41872651  0.15636942     0.13900
H476        H  0.02648086  0.47551983  0.10037680     0.14500
C477        C  0.06756223  0.59368413  0.27918390    -0.15100
C478        C  0.05803006  0.62969631  0.29395454    -0.30300
H479        H  0.06153748  0.56615525  0.29440991     0.13900
H480        H  0.06206145  0.65666862  0.27736175     0.14500
C481        C  0.09240728  0.60920616  0.03357767    -0.15100
C482        C  0.10862250  0.57375638  0.04274421    -0.30300
H483        H  0.08494543  0.63083629  0.05539454     0.13900
H484        H  0.11935831  0.55318386  0.02132181     0.14500
C485        C  0.10413693  0.70550327  0.15357843    -0.15100
C486        C  0.06673155  0.71981568  0.15042633    -0.30300
H487        H  0.12973509  0.72435870  0.14609742     0.13900
H488        H  0.04108580  0.70155322  0.15889626     0.14500
C489        C  0.43136705  0.46399952  0.35881958    -0.15100
C490        C  0.42971911  0.43505730  0.38491818    -0.30300
H491        H  0.45920047  0.46859711  0.34344409     0.13900
H492        H  0.40217467  0.42886069  0.40015975     0.14500
C493        C  0.20478853  0.59413465  0.39146149    -0.15100
C494        C  0.19134706  0.63190022  0.39616446    -0.30300
H495        H  0.18569028  0.56865561  0.39878745     0.13900
H496        H  0.21091624  0.65764205  0.39101173     0.14500
C497        C  0.25607273  0.49767463  0.26111490    -0.15100
C498        C  0.21625105  0.50183520  0.25711472    -0.30300
H499        H  0.27437397  0.49499558  0.23612490     0.13900
H500        H  0.19915531  0.50671328  0.28262396     0.14500
C501        C  0.53168464  0.57293514  0.11192335    -0.15100
C502        C  0.56063470  0.57476013  0.13834041    -0.30300
H503        H  0.52734915  0.54491379  0.09644368     0.13900
H504        H  0.56680742  0.60253346  0.15357539     0.14500
C505        C  0.39160582  0.61046574  0.97633664    -0.15100
C506        C  0.37070172  0.57582814  0.46829406    -0.30300
H507        H  0.40278071  0.62920392  0.95378175     0.13900
H508        H  0.35543830  0.55916151  0.49017064     0.14500
C509        C  0.42173995  0.62951159  0.21880081    -0.15100
C510        C  0.39155947  0.60425917  0.22737033    -0.30300
H511        H  0.43666194  0.64702396  0.24060011     0.13900
H512        H  0.37394686  0.59006043  0.20525218     0.14500
C513        C  0.27172277  0.59988063  0.12092615    -0.15100
C514        C  0.28517363  0.63783101  0.11470615    -0.30300
H515        H  0.29026855  0.57482573  0.11205811     0.13900
H516        H  0.26594446  0.66332697  0.12048148     0.14500
C517        C  0.40226579  0.80090829  0.14334464    -0.15100
C518        C  0.36513203  0.81292501  0.15247813    -0.30300
H519        H  0.42786069  0.82072438  0.14868114     0.13900
H520        H  0.33973694  0.79229621  0.14968087     0.14500
C521        C  0.53105402  0.95513200  0.40703814    -0.15100
C522        C  0.55693574  0.95549795  0.37810839    -0.30300
H523        H  0.52913760  0.98179395  0.42477609     0.13900
H524        H  0.55848370  0.93024664  0.35873223     0.14500
C525        C  0.40180993  0.72535438  0.37054695    -0.15100
C526        C  0.36469741  0.71052076  0.36483783    -0.30300
H527        H  0.42770607  0.70782343  0.36207722     0.13900
H528        H  0.33849300  0.72876918  0.37059540     0.14500
C529        C  0.51058215  0.77335927  0.49110754    -0.15100
C530        C  0.51041348  0.74862772  0.02082594    -0.30300
H531        H  0.54075722  0.78010512  0.48100359     0.13900
H532        H  0.54053230  0.73978883  0.02900951     0.14500
C533        C  0.26712688  0.91723890  0.40667313    -0.15100
C534        C  0.28345435  0.88035163  0.40648998    -0.30300
H535        H  0.28313721  0.94185977  0.42051036     0.13900
H536        H  0.26688306  0.85458474  0.39538787     0.14500
C537        C  0.41768031  0.89822168  0.29792196    -0.15100
C538        C  0.38584431  0.92086620  0.28968926    -0.30300
H539        H  0.43378329  0.88260409  0.27582413     0.13900
H540        H  0.36729321  0.93301221  0.31200080     0.14500
C541        C  0.36896947  0.94596382  0.04824457    -0.15100
C542        C  0.39011088  0.91266784  0.04076898    -0.30300
H543        H  0.35406678  0.96188866  0.02591611     0.13900
H544        H  0.40209519  0.89431743  0.56356309     0.14500
Fe545      Fe  0.40907536  0.91443208  0.91930037     1.65800
Fe546      Fe  0.39088467  0.81993564  0.95356323     1.73200
Fe547      Fe  0.46886908  0.83699439  0.89402324     1.54400
O548        O  0.44477177  0.85612913  0.84438967    -0.80400
O549        O  0.44211174  0.79092305  0.97528825    -0.78700
O550        O  0.41687250  0.91437003  0.86188234    -0.82900
O551        O  0.46694556  0.93436428  0.92837794    -0.77700
O552        O  0.44438427  0.78051391  0.88431949    -0.79500
O553        O  0.39337172  0.85852375  0.99880809    -0.82200
C554        C  0.49852366  0.92470041  0.91104463     0.98500
C555        C  0.42729080  0.88892356  0.83697380     1.06000
O556        O  0.42281158  0.85717542  0.92248866    -1.11200
O557        O  0.33593274  0.84293038  0.93521234    -0.73700
O558        O  0.34982880  0.90234825  0.90963813    -0.77100
O559        O  0.50277545  0.89013270  0.89637590    -0.77800
C560        C  0.32542479  0.87438570  0.91786421     0.97400
O561        O  0.39849041  0.92067639  0.97584777    -0.75800
O562        O  0.38458366  0.77789738  0.91156912    -0.81000
C563        C  0.47975499  0.79512293  0.96931974     1.00100
C564        C  0.41079646  0.76349789  0.88986429     1.06000
O565        O  0.49389983  0.81644636  0.94275127    -0.76600
C566        C  0.39429479  0.89648017  0.00280879     1.04300
Fe567      Fe  0.41221389  0.60926018  0.59792822     1.65800
Fe568      Fe  0.39067127  0.70232403  0.56363411     1.73200
Fe569      Fe  0.47025589  0.68974669  0.62168943     1.54400
O570        O  0.44689220  0.67103742  0.67177408    -0.80400
O571        O  0.44150220  0.73281664  0.54021678    -0.78700
O572        O  0.42157228  0.61067254  0.65512360    -0.82900
O573        O  0.47053243  0.59274662  0.58770768    -0.77700
O574        O  0.44528638  0.74582059  0.63028380    -0.79500
O575        O  0.39299758  0.66357124  0.51865741    -0.82200
C576        C  0.50151394  0.60316491  0.60589154     0.98500
C577        C  0.43106388  0.63716905  0.67964642     1.06000
O578        O  0.42412485  0.66706032  0.59428247    -1.11200
O579        O  0.33637747  0.67655668  0.58362574    -0.73700
O580        O  0.35269035  0.61798896  0.60892887    -0.77100
O581        O  0.50502623  0.63779293  0.62072601    -0.77800
C582        C  0.32708734  0.64452745  0.60131974     0.97400
O583        O  0.40056000  0.60181291  0.54151117    -0.75800
O584        O  0.38436902  0.74460339  0.60542432    -0.81000
C585        C  0.47941628  0.72911880  0.54506781     1.00100
C586        C  0.41097604  0.76096091  0.62580867     1.06000
O587        O  0.49417227  0.70926133  0.57206517    -0.76600
C588        C  0.39514815  0.62573504  0.51459957     1.04300
Fe589      Fe  0.39447469  0.58316610  0.84854786     1.65800
Fe590      Fe  0.30234251  0.60595170  0.81595774     1.73200
Fe591      Fe  0.31394674  0.52399803  0.86916476     1.54400
O592        O  0.36629705  0.48999590  0.86930195    -0.80400
O593        O  0.26401288  0.61313578  0.85981804    -0.78700
O594        O  0.41034912  0.52510940  0.83639316    -0.82900
O595        O  0.39236815  0.57278122  0.90561570    -0.77700
O596        O  0.29634559  0.50024001  0.81748663    -0.79500
O597        O  0.32907445  0.65931721  0.83354252    -0.82200
C598        C  0.36465571  0.56448258  0.92911279     0.98500
C599        C  0.40057225  0.49396987  0.85428949     1.06000
O600        O  0.33729319  0.57119948  0.84441357    -1.11200
O601        O  0.33845840  0.60182594  0.76993277    -0.73700
O602        O  0.40084253  0.59595492  0.79224482    -0.77100
O603        O  0.33125217  0.54789277  0.92015355    -0.77800
C604        C  0.37614868  0.60034091  0.76555397     0.97400
O605        O  0.38610433  0.64252279  0.86118018    -0.75800
O606        O  0.27036422  0.55694083  0.79484244    -0.81000
C607        C  0.24470749  0.58525613  0.87563241     1.00100
C608        C  0.27529740  0.51898073  0.79360106     1.06000
O609        O  0.25723255  0.54931798  0.87600299    -0.76600
C610        C  0.36023985  0.66823701  0.85218721     1.04300
Fe611      Fe  0.08147589  0.57496330  0.66036535     1.65800
Fe612      Fe  0.16770319  0.60591520  0.69956693     1.73200
Fe613      Fe  0.16671339  0.52175142  0.64391352     1.54400
O614        O  0.12197262  0.47926851  0.65425193    -0.80400
O615        O  0.21896902  0.60962987  0.66609218    -0.78700
O616        O  0.06696968  0.51546152  0.64945632    -0.82900
O617        O  0.09239996  0.58164572  0.60513155    -0.77700
O618        O  0.19415539  0.50499204  0.69433618    -0.79500
O619        O  0.14748826  0.65398125  0.67012662    -0.82200
C620        C  0.11457849  0.56246365  0.58228326     0.98500
C621        C  0.08463764  0.48198630  0.64854678     1.06000
O622        O  0.13898486  0.56696682  0.66801715    -1.11200
O623        O  0.11948070  0.60890501  0.73728351    -0.73700
O624        O  0.07025482  0.56815290  0.71644538    -0.77100
O625        O  0.14060954  0.53650452  0.59225614    -0.77800
C626        C  0.08638219  0.58973541  0.74190999     0.97400
O627        O  0.08313085  0.63735981  0.66706038    -0.75800
O628        O  0.19053544  0.56011021  0.73092150    -0.81000
C629        C  0.23303196  0.58845918  0.63959555     1.00100
C630        C  0.19943980  0.52341818  0.72549064     1.06000
O631        O  0.21627307  0.55600434  0.62874755    -0.76600
C632        C  0.11141097  0.66301440  0.66421552     1.04300
Fe633      Fe  0.05872145  0.90926826  0.60413192     1.65800
Fe634      Fe  0.08227918  0.81552585  0.57312193     1.73200
Fe635      Fe  0.99877897  0.82901362  0.62524813     1.54400
O636        O  0.02169791  0.84859648  0.67666180    -0.80400
O637        O  0.03404025  0.78453799  0.54983777    -0.78700
O638        O  0.04890227  0.90846261  0.66124322    -0.82900
O639        O  0.00071171  0.92594899  0.59328180    -0.77700
O640        O  0.02268365  0.77218647  0.63384459    -0.79500
O641        O  0.08212104  0.85204428  0.52714533    -0.82200
C642        C  0.96861874  0.91545010  0.60948935     0.98500
C643        C  0.03916176  0.88196806  0.68528663     1.06000
O644        O  0.04669989  0.85157687  0.60063943    -1.11200
O645        O  0.13493066  0.84117270  0.59292711    -0.73700
O646        O  0.11839902  0.90134132  0.61530388    -0.77100
O647        O  0.96427286  0.88098348  0.62380261    -0.77800
C648        C  0.14392591  0.87427888  0.60866696     0.97400
O649        O  0.07084986  0.91468304  0.54771110    -0.75800
O650        O  0.08628996  0.77615560  0.61637804    -0.81000
C651        C  0.99613426  0.78888414  0.54863324     1.00100
C652        C  0.05785287  0.75812292  0.63276157     1.06000
O653        O  0.97670058  0.80931187  0.57308654    -0.76600
C654        C  0.07865315  0.88953938  0.52182439     1.04300
Fe655      Fe  0.06508522  0.60401372  0.91314423     1.65800
Fe656      Fe  0.08965470  0.69770301  0.94508607     1.73200
Fe657      Fe  0.00635089  0.68372026  0.89394407     1.54400
O658        O  0.03101227  0.66798031  0.84288871    -0.80400
O659        O  0.04062047  0.72689373  0.96951174    -0.78700
O660        O  0.05344630  0.60593338  0.85581452    -0.82900
O661        O  0.00722848  0.58732070  0.92560903    -0.77700
O662        O  0.02906024  0.74175678  0.88823630    -0.79500
O663        O  0.08999709  0.66068381  0.99041482    -0.82200
C664        C  0.97660320  0.59628493  0.90693423     0.98500
C665        C  0.04638728  0.63443658  0.83300955     1.06000
O666        O  0.05397348  0.66141620  0.91773997    -1.11200
O667        O  0.14204531  0.67247789  0.92446671    -0.73700
O668        O  0.12436100  0.61264028  0.90088986    -0.77100
O669        O  0.97308223  0.63043472  0.89209113    -0.77800
C670        C  0.15040877  0.63955091  0.90816664     0.97400
O671        O  0.07897940  0.59790824  0.96928781    -0.75800
O672        O  0.09346116  0.73751189  0.90178189    -0.81000
C673        C  0.00290513  0.71951633  0.97154432     1.00100
C674        C  0.06452842  0.75561697  0.88695333     1.06000
O675        O  0.98376680  0.69931603  0.94652033    -0.76600
C676        C  0.08707164  0.62303017  0.99529838     1.04300
Fe677      Fe  0.38951745  0.94130581  0.66819392     1.65800
Fe678      Fe  0.29761296  0.91320051  0.69975590     1.73200
Fe679      Fe  0.30695962  0.99475275  0.64429700     1.54400
O680        O  0.35763524  0.03219892  0.64555397    -0.80400
O681        O  0.25869752  0.90322373  0.65625232    -0.78700
O682        O  0.40238311  0.00058140  0.67987400    -0.82900
O683        O  0.38909992  0.95101034  0.61115819    -0.77700
O684        O  0.28405810  0.01857205  0.69383314    -0.79500
O685        O  0.32648141  0.86139596  0.68231549    -0.82200
C686        C  0.36211141  0.95750973  0.58678189     0.98500
C687        C  0.39189396  0.03046606  0.66082161     1.06000
O688        O  0.33156484  0.94972511  0.67100046    -1.11200
O689        O  0.33327281  0.91955717  0.74618622    -0.73700
O690        O  0.39553814  0.92938471  0.72461403    -0.77100
O691        O  0.32768803  0.97161381  0.59452665    -0.77800
C692        C  0.37080503  0.92327133  0.75104636     0.97400
O693        O  0.38376806  0.88121079  0.65593412    -0.75800
O694        O  0.26395338  0.96059200  0.71996298    -0.81000
C695        C  0.23976788  0.92955828  0.63840116     1.00100
C696        C  0.26358334  0.99881900  0.71781267     1.06000
O697        O  0.25236826  0.96551407  0.63569084    -0.76600
C698        C  0.35839344  0.85412320  0.66429419     1.04300
Fe699      Fe  0.08220204  0.93681520  0.85375944     1.65800
Fe700      Fe  0.17296853  0.91280992  0.81841313     1.73200
Fe701      Fe  0.16506543  0.99165703  0.87959533     1.54400
O702        O  0.12340294  0.03381931  0.86315287    -0.80400
O703        O  0.22092443  0.91012853  0.85557953    -0.78700
O704        O  0.06732000  0.99689556  0.86218837    -0.82900
O705        O  0.08716737  0.92971620  0.90990963    -0.77700
O706        O  0.20283264  0.00953138  0.83585110    -0.79500
O707        O  0.15168894  0.86151465  0.84335322    -0.82200
C708        C  0.10582235  0.94988507  0.93474808     0.98500
C709        C  0.08546656  0.03070195  0.86439652     1.06000
O710        O  0.14020526  0.94764087  0.85018957    -1.11200
O711        O  0.12908819  0.90972791  0.77683034    -0.73700
O712        O  0.07406722  0.94142218  0.79689526    -0.77100
O713        O  0.13135613  0.97752178  0.92719642    -0.77800
C714        C  0.09410865  0.92374003  0.77148679     0.97400
O715        O  0.08678718  0.87486524  0.84840081    -0.75800
O716        O  0.19801712  0.96164887  0.79163541    -0.81000
C717        C  0.22978665  0.92703945  0.88647259     1.00100
C718        C  0.21121681  0.99543088  0.80359821     1.06000
O719        O  0.20958705  0.95562612  0.90023073    -0.76600
C720        C  0.11596601  0.85076159  0.85024308     1.04300
Fe721      Fe  0.57899372  0.44393370  0.65355844     1.65800
Fe722      Fe  0.66402196  0.41711861  0.69662597     1.73200
Fe723      Fe  0.66506449  0.49765306  0.63886343     1.54400
O724        O  0.63691797  0.48617875  0.58807992    -0.80400
O725        O  0.68428937  0.46483853  0.72924369    -0.78700
O726        O  0.58959636  0.43878397  0.59755864    -0.82900
O727        O  0.56619034  0.50394009  0.64549722    -0.77700
O728        O  0.71058149  0.46101439  0.62075418    -0.79500
O729        O  0.61444527  0.41026272  0.73152623    -0.82200
C730        C  0.58468746  0.53752182  0.64657976     0.98500
C731        C  0.61136496  0.46029375  0.57628464     1.06000
O732        O  0.63615501  0.45344791  0.66320183    -1.11200
O733        O  0.64715156  0.36781449  0.66523331    -0.73700
O734        O  0.58260197  0.38153655  0.65764275    -0.77100
O735        O  0.62212760  0.54021405  0.65309945    -0.77800
C736        C  0.61188791  0.35734955  0.65610442     0.97400
O737        O  0.56549742  0.44879404  0.70966065    -0.75800
O738        O  0.71713065  0.41708946  0.66674686    -0.81000
C739        C  0.70293430  0.49648884  0.71879073     1.00100
C740        C  0.72942073  0.43328269  0.63689970     1.06000
O741        O  0.69878876  0.51159321  0.68646263    -0.76600
C742        C  0.58063001  0.42731492  0.73506400     1.04300
Fe743      Fe  0.89450674  0.43651676  0.85521235     1.65800
Fe744      Fe  0.80579613  0.41496864  0.81611739     1.73200
Fe745      Fe  0.81386941  0.49265238  0.87772680     1.54400
O746        O  0.84853092  0.48149307  0.92532137    -0.80400
O747        O  0.78688622  0.46484517  0.78771336    -0.78700
O748        O  0.88539122  0.42785050  0.91066466    -0.82900
O749        O  0.91023195  0.49612477  0.86628730    -0.77700
O750        O  0.77033701  0.45600553  0.89954887    -0.79500
O751        O  0.85265305  0.40867611  0.77735926    -0.82200
C752        C  0.89322219  0.53017276  0.86512933     0.98500
C753        C  0.86955518  0.45132405  0.93448019     1.06000
O754        O  0.83790461  0.44840352  0.84940924    -1.11200
O755        O  0.82197623  0.36315796  0.84299730    -0.73700
O756        O  0.88759140  0.37453682  0.84728262    -0.77100
O757        O  0.85599831  0.53358529  0.85868831    -0.77800
C758        C  0.85725130  0.35103940  0.84905116     0.97400
O759        O  0.90529183  0.44401179  0.79908436    -0.75800
O760        O  0.75516245  0.41676088  0.85057356    -0.81000
C761        C  0.76798366  0.49442543  0.80158143     1.00100
C762        C  0.74716290  0.43154974  0.88264788     1.06000
O763        O  0.77402922  0.50732746  0.83473547    -0.76600
C764        C  0.88732115  0.42476960  0.77312513     1.04300
Fe765      Fe  0.91054744  0.40931010  0.60421053     1.65800
Fe766      Fe  0.88210378  0.31573164  0.57460819     1.73200
Fe767      Fe  0.96864816  0.32842551  0.62154768     1.54400
O768        O  0.00389445  0.38082078  0.62125165    -0.80400
O769        O  0.87955372  0.27673300  0.61823484    -0.78700
O770        O  0.96842276  0.42547222  0.59082664    -0.82900
O771        O  0.92324484  0.40745879  0.66101290    -0.77700
O772        O  0.98732515  0.31087489  0.56762816    -0.79500
O773        O  0.83145028  0.34199480  0.59731001    -0.82200
C774        C  0.93218265  0.37971831  0.68398978     0.98500
C775        C  0.99996927  0.41559587  0.60770243     1.06000
O776        O  0.92023028  0.35156494  0.59989330    -1.11200
O777        O  0.88073231  0.35219466  0.52891213    -0.73700
O778        O  0.89630540  0.41470997  0.54831603    -0.77100
O779        O  0.94771102  0.34616053  0.67397209    -0.77800
C780        C  0.88612586  0.38944060  0.52307497     0.97400
O781        O  0.85110349  0.40244850  0.61771596    -0.75800
O782        O  0.92842281  0.28436426  0.54849766    -0.81000
C783        C  0.90876854  0.25763549  0.63131177     1.00100
C784        C  0.96608915  0.29022728  0.54426893     1.06000
O785        O  0.94441100  0.27105747  0.62924598    -0.76600
C786        C  0.82438989  0.37558443  0.61279144     1.04300
Fe787      Fe  0.91285056  0.10011530  0.90647282     1.65800
Fe788      Fe  0.88083207  0.19225708  0.93485995     1.73200
Fe789      Fe  0.96743809  0.18344811  0.88761762     1.54400
O790        O  0.00374105  0.13202061  0.88638129    -0.80400
O791        O  0.87704602  0.23144162  0.89086171    -0.78700
O792        O  0.97086804  0.08879910  0.92131238    -0.82900
O793        O  0.92598965  0.10212487  0.84920997    -0.77700
O794        O  0.98640899  0.20110411  0.94127109    -0.79500
O795        O  0.83069774  0.16194426  0.91274291    -0.82200
C796        C  0.93112461  0.13112892  0.82627013     0.98500
C797        C  0.00117331  0.09810140  0.90213300     1.06000
O798        O  0.91995319  0.15827015  0.90990111    -1.11200
O799        O  0.88072884  0.15633331  0.98111608    -0.73700
O800        O  0.89743109  0.09423097  0.96249537    -0.77100
O801        O  0.94508218  0.16570127  0.83601596    -0.77800
C802        C  0.88645851  0.11935091  0.98744556     0.97400
O803        O  0.85408487  0.10312430  0.89240387    -0.75800
O804        O  0.92713986  0.22593070  0.96043023    -0.81000
C805        C  0.90623143  0.25211586  0.87868827     1.00100
C806        C  0.96493230  0.22097574  0.96471764     1.06000
O807        O  0.94202115  0.23993607  0.88116351    -0.76600
C808        C  0.82583031  0.12748208  0.89750652     1.04300
Fe809      Fe  0.57117666  0.08269885  0.85992556     1.65800
Fe810      Fe  0.65094737  0.11091241  0.80776299     1.73200
Fe811      Fe  0.66180235  0.03970265  0.87335588     1.54400
O812        O  0.64659688  0.06611455  0.92341011    -0.80400
O813        O  0.69013215  0.06634388  0.78965396    -0.78700
O814        O  0.58095061  0.07567212  0.91656099    -0.82900
O815        O  0.56010863  0.02185029  0.85436024    -0.77700
O816        O  0.71115590  0.07839360  0.87246767    -0.79500
O817        O  0.60949270  0.09000046  0.77033733    -0.82200
C818        C  0.57922161  0.99327735  0.86932336     0.98500
C819        C  0.61254802  0.07547972  0.93636387     1.06000
O820        O  0.62774065  0.07704886  0.84654892    -1.11200
O821        O  0.61567206  0.16073664  0.81971604    -0.73700
O822        O  0.57851470  0.14329940  0.86864837    -0.77100
O823        O  0.61600286  0.99635098  0.87887462    -0.77800
C824        C  0.59350839  0.16962953  0.84730621     0.97400
O825        O  0.55342625  0.09222468  0.80462335    -0.75800
O826        O  0.69357297  0.13456661  0.84360989    -0.81000
C827        C  0.69735995  0.02972872  0.79704120     1.00100
C828        C  0.71744735  0.11505871  0.86390027     1.06000
O829        O  0.68181976  0.01184423  0.82484944    -0.76600
C830        C  0.57164537  0.09162542  0.77335520     1.04300
Fe831      Fe  0.88799091  0.07414505  0.65497055     1.65800
Fe832      Fe  0.80241609  0.09965720  0.69730544     1.73200
Fe833      Fe  0.80265015  0.02178211  0.63517764     1.54400
O834        O  0.83486624  0.03339698  0.58562902    -0.80400
O835        O  0.78183720  0.05094273  0.72677450    -0.78700
O836        O  0.87808987  0.08334520  0.59953241    -0.82900
O837        O  0.90013516  0.01440542  0.64352982    -0.77700
O838        O  0.75904355  0.06005158  0.61653555    -0.79500
O839        O  0.85144138  0.10428187  0.73396208    -0.82200
C840        C  0.88163808  0.98081599  0.64437569     0.98500
C841        C  0.85916217  0.06151191  0.57599710     1.06000
O842        O  0.83080281  0.06474397  0.66263049    -1.11200
O843        O  0.82064511  0.15019571  0.66944052    -0.73700
O844        O  0.88531323  0.13610801  0.66336131    -0.77100
O845        O  0.84405624  0.97835140  0.65037107    -0.77800
C846        C  0.85644663  0.16074780  0.66250270     0.97400
O847        O  0.90001527  0.06562571  0.71078015    -0.75800
O848        O  0.74965498  0.10054564  0.66562302    -0.81000
C849        C  0.76118335  0.02144821  0.71424139     1.00100
C850        C  0.73861707  0.08592804  0.63423375     1.06000
O851        O  0.76517294  0.00776170  0.68096709    -0.76600
C852        C  0.88482813  0.08616912  0.73718950     1.04300
Fe853      Fe  0.56065516  0.41931840  0.90258359     1.65800
Fe854      Fe  0.58598804  0.33918418  0.95159002     1.73200
Fe855      Fe  0.50876744  0.33178237  0.89150186     1.54400
O856        O  0.46540659  0.37499946  0.90157430    -0.80400
O857        O  0.58148609  0.28127485  0.93030575    -0.78700
O858        O  0.50095340  0.43114980  0.89230146    -0.82900
O859        O  0.56755041  0.40557315  0.84763213    -0.77700
O860        O  0.49378390  0.30353150  0.94303192    -0.81100
O861        O  0.63457670  0.34928104  0.91760773    -0.82200
C862        C  0.54694201  0.38252090  0.82649819     0.98500
C863        C  0.46767987  0.41222404  0.89407741     1.06000
O864        O  0.55119710  0.36332713  0.91491657    -1.11200
O865        O  0.59652419  0.39295469  0.98013627    -0.73700
O866        O  0.55252694  0.43583696  0.95742308    -0.77100
O867        O  0.52176025  0.35630912  0.83865470    -0.77800
C868        C  0.57498030  0.42404089  0.98343327     0.97400
O869        O  0.62307207  0.41444637  0.90900666    -0.75800
O870        O  0.53755130  0.32817548  0.98529393    -0.81000
C871        C  0.56971910  0.26681479  0.89940073     1.00100
C872        C  0.50642634  0.30761716  0.97679091     1.06000
O873        O  0.54743365  0.28612110  0.87751900    -0.76600
C874        C  0.64601436  0.38393628  0.90734959     1.04300
Fe875      Fe  0.55242501  0.10694645  0.61076746     1.65800
Fe876      Fe  0.58351749  0.19188379  0.57139916     1.73200
Fe877      Fe  0.49688902  0.19102410  0.62205253     1.54400
O878        O  0.45670707  0.14628025  0.60599480    -0.80400
O879        O  0.58072018  0.24535988  0.60156671    -0.78700
O880        O  0.49254208  0.09259597  0.61895674    -0.82900
O881        O  0.55589797  0.11864492  0.66610833    -0.77700
O882        O  0.48537885  0.22101468  0.57127382    -0.79500
O883        O  0.62957598  0.17542669  0.60631777    -0.82200
C884        C  0.53150841  0.13772422  0.68689102     0.98500
C885        C  0.45907181  0.10983032  0.61539696     1.06000
O886        O  0.54378998  0.16380662  0.60149851    -1.11200
O887        O  0.59173663  0.14173855  0.53645020    -0.73700
O888        O  0.54785822  0.09465093  0.55485218    -0.77100
O889        O  0.50616160  0.16321533  0.67443893    -0.77800
C890        C  0.57125899  0.10957904  0.53060007     0.97400
O891        O  0.61520753  0.11033644  0.60706510    -0.75800
O892        O  0.53975405  0.21075561  0.53542568    -0.81000
C893        C  0.55959154  0.25849316  0.62846416     1.00100
C894        C  0.50443726  0.22393340  0.54027741     1.06000
O895        O  0.52962742  0.23947755  0.64128198    -0.76600
C896        C  0.63955909  0.13952810  0.61254182     1.04300
C897        C  0.48760519  0.28529582  0.00800020    -0.15100
C898        C  0.48701639  0.24498813  0.50792358    -0.30300
H899        H  0.48884144  0.30025261  0.03511249     0.13900
H900        H  0.49107611  0.23008240  0.48105852     0.14500
C901        C  0.69942810  0.09712704  0.61817496    -0.15100
C902        C  0.68045121  0.13150741  0.62661969    -0.30300
H903        H  0.68549374  0.07595670  0.59868937     0.13900
H904        H  0.69530804  0.15430413  0.64378321     0.14500
C905        C  0.58104204  0.22543536  0.89004278    -0.15100
C906        C  0.58456664  0.21209785  0.85480977    -0.30300
H907        H  0.58721979  0.20529801  0.91304457     0.13900
H908        H  0.58195161  0.23268466  0.83157363     0.14500
C909        C  0.72738413  0.00715431  0.73776600    -0.15100
C910        C  0.72938015  0.01003155  0.77517291    -0.30300
H911        H  0.69810061  0.00562703  0.72445227     0.13900
H912        H  0.75882643  0.01081451  0.78821060     0.14500
C913        C  0.61010294  0.08872620  0.97548697    -0.15100
C914        C  0.57461177  0.08925906  0.49425103    -0.30300
H915        H  0.63725559  0.10049992  0.98864113     0.13900
H916        H  0.54790635  0.07509064  0.48238179     0.14500
C917        C  0.54916341  0.09420305  0.73853590    -0.15100
C918        C  0.53403811  0.12953167  0.72722025    -0.30300
H919        H  0.55504943  0.07067248  0.71804322     0.13900
H920        H  0.52891524  0.15387021  0.74705424     0.14500
C921        C  0.87935930  0.10613306  0.52536513    -0.15100
C922        C  0.86573149  0.06971402  0.53590475    -0.30300
H923        H  0.88405082  0.12950158  0.54640552     0.13900
H924        H  0.85770058  0.04699894  0.51514996     0.14500
C925        C  0.91783865  0.12535881  0.78712277    -0.15100
C926        C  0.90633158  0.08931175  0.77307922    -0.30300
H927        H  0.91424303  0.15207418  0.77020936     0.13900
H928        H  0.91132232  0.06195017  0.78866174     0.14500
C929        C  0.78610316  0.11231671  0.88625216    -0.15100
C930        C  0.75473205  0.13500601  0.87710020    -0.30300
H931        H  0.78348459  0.07977191  0.88334006     0.13900
H932        H  0.75734993  0.16762091  0.87709577     0.14500
C933        C  0.90161431  0.21768979  0.64759102    -0.15100
C934        C  0.86427207  0.20285696  0.65230400    -0.30300
H935        H  0.92750837  0.19932971  0.65386777     0.13900
H936        H  0.83844569  0.22163105  0.64686500     0.14500
C937        C  0.98340656  0.27402196  0.50894498    -0.15100
C938        C  0.98211204  0.23649562  0.00046253    -0.30300
H939        H  0.98581881  0.29515615  0.48609249     0.13900
H940        H  0.98012260  0.21570376  0.02362490     0.14500
C941        C  0.92166214  0.38615744  0.72379081    -0.15100
C942        C  0.90667859  0.42132637  0.73632677    -0.30300
H943        H  0.92291747  0.36061692  0.74246773     0.13900
H944        H  0.90582696  0.44741632  0.71833480     0.14500
C945        C  0.87532680  0.44239496  0.97424807    -0.15100
C946        C  0.88096609  0.40265228  0.48462785    -0.30300
H947        H  0.87021193  0.46563110  0.99519236     0.13900
H948        H  0.88121246  0.37918146  0.46325556     0.14500
C949        C  0.89954614  0.29245859  0.86300905    -0.15100
C950        C  0.86285778  0.30843778  0.85925553    -0.30300
H951        H  0.92599357  0.31040758  0.85621167     0.13900
H952        H  0.83628512  0.29039772  0.86539539     0.14500
C953        C  0.70827765  0.42261620  0.90030826    -0.15100
C954        C  0.68711500  0.38901024  0.89301819    -0.30300
H955        H  0.69622045  0.44497019  0.91950357     0.13900
H956        H  0.70007989  0.36498687  0.87630230     0.14500
C957        C  0.76822372  0.42115345  0.62115131    -0.15100
C958        C  0.78343388  0.38426821  0.62564861    -0.30300
H959        H  0.78508752  0.44351301  0.60543467     0.13900
H960        H  0.76564109  0.36050121  0.63843933     0.14500
C961        C  0.73545455  0.51240680  0.74291830    -0.15100
C962        C  0.73366444  0.50979814  0.78016900    -0.30300
H963        H  0.76461569  0.51606532  0.72964848     0.13900
H964        H  0.70450360  0.50785777  0.79370357     0.14500
C965        C  0.60491481  0.31583645  0.64271256    -0.15100
C966        C  0.56854987  0.29834054  0.64482617    -0.30300
H967        H  0.63002282  0.29941866  0.63089375     0.13900
H968        H  0.54426757  0.31386179  0.65901931     0.14500
C969        C  0.57349139  0.44499474  0.51954191    -0.15100
C970        C  0.60867741  0.45307276  0.53610643    -0.30300
H971        H  0.54764773  0.45232820  0.03285965     0.13900
H972        H  0.63653892  0.45051249  0.52046755     0.14500
C973        C  0.55948489  0.42262851  0.77075227    -0.15100
C974        C  0.55420068  0.38615578  0.78618493    -0.30300
H975        H  0.55182364  0.44971399  0.78629991     0.13900
H976        H  0.55953366  0.35895290  0.76995007     0.14500
C977        C  0.06117886  0.06731375  0.87072891    -0.15100
C978        C  0.03193904  0.06667260  0.89678933    -0.30300
H979        H  0.06745785  0.09433728  0.85485412     0.13900
H980        H  0.02771693  0.03936068  0.91290814     0.14500
C981        C  0.42228975  0.08666990  0.62455801    -0.15100
C982        C  0.42245925  0.06208153  0.65431129    -0.30300
H983        H  0.39593473  0.08902910  0.60692911     0.13900
H984        H  0.44922940  0.06115287  0.67164758     0.14500
C985        C  0.24099543  0.01658960  0.78004313    -0.15100
C986        C  0.23527631  0.01915513  0.74306260    -0.30300
H987        H  0.27159411  0.01652481  0.79055385     0.13900
H988        H  0.20447014  0.01894187  0.73307536     0.14500
C989        C  0.94614275  0.56451489  0.90044950    -0.15100
C990        C  0.91760754  0.56636884  0.87388242    -0.30300
H991        H  0.94997851  0.53657788  0.91555834     0.13900
H992        H  0.91210706  0.59414721  0.85909735     0.14500
C993        C  0.07148698  0.79481750  0.86915858    -0.15100
C994        C  0.10861144  0.80904961  0.86217503    -0.30300
H995        H  0.04544084  0.81301019  0.86299310     0.13900
H996        H  0.13454963  0.79037224  0.86744493     0.14500
C997        C  0.93708153  0.94623356  0.61328607    -0.15100
C998        C  0.90545217  0.94408937  0.63689545    -0.30300
H999        H  0.94280644  0.97433807  0.59878961     0.13900
H1000       H  0.89794889  0.91626503  0.65107541     0.14500
C1001       C  0.18574864  0.88170364  0.62013354    -0.15100
C1002       C  0.20053994  0.91941875  0.62192436    -0.30300
H1003       H  0.20426894  0.85626465  0.62749098     0.13900
H1004       H  0.18230668  0.94426361  0.61244950     0.14500
C1005       C  0.97614859  0.77059412  0.51550471    -0.15100
C1006       C  0.98286707  0.73249272  0.00654277    -0.30300
H1007       H  0.97152116  0.79084738  0.49232581     0.13900
H1008       H  0.98793628  0.71248879  0.02985518     0.14500
C1009       C  0.05024466  0.89022107  0.72476614    -0.15100
C1010       C  0.07699331  0.91959226  0.73379166    -0.30300
H1011       H  0.03912135  0.87009469  0.74625626     0.13900
H1012       H  0.09044517  0.93800015  0.71212840     0.14500
C1013       C  0.08376530  0.90351264  0.48341569    -0.15100
C1014       C  0.09801512  0.93979503  0.97404571    -0.30300
H1015       H  0.07885983  0.88126016  0.46139401     0.13900
H1016       H  0.10624675  0.96127283  0.99584595     0.14500
C1017       C  0.06054600  0.44539683  0.63935484    -0.15100
C1018       C  0.03107209  0.44722753  0.61356751    -0.30300
H1019       H  0.06665019  0.41746962  0.65366919     0.13900
H1020       H  0.02658621  0.47543630  0.59907188     0.14500
C1021       C  0.06625595  0.59305115  0.77837410    -0.15100
C1022       C  0.05889852  0.62929783  0.79374116    -0.30300
H1023       H  0.05824995  0.56562497  0.79300778     0.13900
H1024       H  0.06460072  0.65630369  0.77758622     0.14500
C1025       C  0.09187372  0.60654882  0.53320147    -0.15100
C1026       C  0.10959599  0.57187525  0.54242293    -0.30300
H1027       H  0.08305546  0.62767806  0.55498278     0.13900
H1028       H  0.12157912  0.55190527  0.52109383     0.14500
C1029       C  0.10282299  0.70447096  0.65291794    -0.15100
C1030       C  0.06537767  0.71863487  0.64965652    -0.30300
H1031       H  0.12836240  0.72352901  0.64570708     0.13900
H1032       H  0.03974776  0.70023306  0.65791209     0.14500
C1033       C  0.43189143  0.46346874  0.85940379    -0.15100
C1034       C  0.43076544  0.43480892  0.88579122    -0.30300
H1035       H  0.45949467  0.46793358  0.84364199     0.13900
H1036       H  0.40348068  0.42868825  0.90145349     0.14500
C1037       C  0.20537085  0.59414569  0.89216091    -0.15100
C1038       C  0.19209142  0.63200264  0.89676245    -0.30300
H1039       H  0.18607787  0.56875509  0.89931362     0.13900
H1040       H  0.21184825  0.65761957  0.89167869     0.14500
C1041       C  0.25546200  0.49774047  0.76212953    -0.15100
C1042       C  0.21569248  0.50258367  0.75829917    -0.30300
H1043       H  0.27359264  0.49423434  0.73712083     0.13900
H1044       H  0.19887119  0.50830147  0.78382217     0.14500
C1045       C  0.53250821  0.57221686  0.61160132    -0.15100
C1046       C  0.56129585  0.57409677  0.63818446    -0.30300
H1047       H  0.52844224  0.54424138  0.59598834     0.13900
H1048       H  0.56711813  0.60177050  0.65368758     0.14500
C1049       C  0.39151332  0.60962220  0.47651869    -0.15100
C1050       C  0.37132042  0.57629663  0.96831947    -0.30300
H1051       H  0.40295096  0.62836934  0.45408196     0.13900
H1052       H  0.35630295  0.55958824  0.99031155     0.14500
C1053       C  0.42197422  0.62850730  0.71887592    -0.15100
C1054       C  0.39105776  0.60414026  0.72740795    -0.30300
H1055       H  0.43765607  0.64526922  0.74071459     0.13900
H1056       H  0.37280455  0.59080697  0.70528310     0.14500
C1057       C  0.27199617  0.59946144  0.62195385    -0.15100
C1058       C  0.28516643  0.63733849  0.61483075    -0.30300
H1059       H  0.29088479  0.57434101  0.61395988     0.13900
H1060       H  0.26563098  0.66279291  0.61976247     0.14500
C1061       C  0.40296885  0.80002383  0.64374123    -0.15100
C1062       C  0.36567635  0.81265909  0.65134656    -0.30300
H1063       H  0.42863593  0.81927323  0.65040771     0.13900
H1064       H  0.34007116  0.79255291  0.64719707     0.14500
C1065       C  0.52965477  0.95634760  0.90606393    -0.15100
C1066       C  0.55676588  0.95598468  0.87809719    -0.30300
H1067       H  0.52666268  0.98365830  0.92277025     0.13900
H1068       H  0.56003563  0.92977268  0.86008249     0.14500
C1069       C  0.40336429  0.72443019  0.87167149    -0.15100
C1070       C  0.36628597  0.70999274  0.86497015    -0.30300
H1071       H  0.42937052  0.70655126  0.86421840     0.13900
H1072       H  0.34018432  0.72869417  0.86976685     0.14500
C1073       C  0.51076549  0.77472216  0.99194314    -0.15100
C1074       C  0.51036754  0.74745275  0.52015567    -0.30300
H1075       H  0.54098338  0.78181997  0.98215616     0.13900
H1076       H  0.54050802  0.73844473  0.52810469     0.14500
C1077       C  0.26700689  0.91613293  0.90608340    -0.15100
C1078       C  0.28338761  0.87927152  0.90549112    -0.30300
H1079       H  0.28278163  0.94049215  0.92054121     0.13900
H1080       H  0.26706951  0.85365486  0.89377889     0.14500
C1081       C  0.41752882  0.89743520  0.79779788    -0.15100
C1082       C  0.38560641  0.91989401  0.78936482    -0.30300
H1083       H  0.43390541  0.88196920  0.77578700     0.13900
H1084       H  0.36680330  0.93184477  0.81158063     0.14500
C1085       C  0.37076247  0.94627154  0.54798551    -0.15100
C1086       C  0.39152270  0.91271766  0.54071076    -0.30300
H1087       H  0.35628087  0.96242744  0.52555710     0.13900
H1088       H  0.40115615  0.89447208  0.06356373     0.14500
loop_ 
_geom_bond_atom_site_label_1 
_geom_bond_atom_site_label_2 
_geom_bond_distance 
_geom_bond_site_symmetry_2 
_ccdc_geom_bond_type 
Fe1          O17   2.061       .  S
Fe1           O7   2.056       .  S
Fe1          O14   2.041       .  S
Fe1           O6   2.071       .  S
Fe1          O12   1.967       .  S
Fe2           O5   2.122       .  S
Fe2           O9   2.057       .  S
Fe2          O13   2.099       .  S
Fe2          O18   2.055       .  S
Fe2          O12   1.975       .  S
Fe3          O21   2.061       .  S
Fe3           O8   2.063       .  S
Fe3          O15   2.085       .  S
Fe3           O4   2.060       .  S
Fe3          O12   1.962       .  S
O4           C11   1.271       .  A
O5           C19   1.277       .  A
O6           C11   1.274       .  A
O7           C10   1.264       .  A
O8           C20   1.264       .  A
O9           C22   1.268       .  A
C10          O15   1.268       .  A
C10         C521   1.479       .  S
C11         C537   1.471       .  S
O13          C16   1.274       .  A
O14          C16   1.265       .  A
C16         C534   1.481       .  S
O17          C22   1.269       .  A
O18          C20   1.264       .  A
C19          O21   1.278       .  A
C19         C529   1.488       .  S
C20         C525   1.466       .  S
C22        C1086   1.463       .  S
Fe23         O39   2.072       .  S
Fe23         O29   2.054       .  S
Fe23         O36   2.043       .  S
Fe23         O28   2.078       .  S
Fe23         O34   1.959       .  S
Fe24         O27   2.140       .  S
Fe24         O31   2.057       .  S
Fe24         O35   2.119       .  S
Fe24         O40   2.057       .  S
Fe24         O34   1.966       .  S
Fe25         O43   2.053       .  S
Fe25         O30   2.071       .  S
Fe25         O37   2.092       .  S
Fe25         O26   2.053       .  S
Fe25         O34   1.961       .  S
O26          C33   1.271       .  A
O27          C41   1.283       .  A
O28          C33   1.277       .  A
O29          C32   1.264       .  A
O30          C42   1.265       .  A
O31          C44   1.267       .  A
C32          O37   1.268       .  A
C32         C501   1.481       .  S
C33         C509   1.469       .  S
O35          C38   1.279       .  A
O36          C38   1.265       .  A
C38         C514   1.493       .  S
O39          C44   1.270       .  A
O40          C42   1.264       .  A
C41          O43   1.278       .  A
C41         C530   1.492       .  S
C42         C517   1.470       .  S
C44         C505   1.467   1_554  S
Fe45         O61   2.042       .  S
Fe45         O51   2.076       .  S
Fe45         O58   2.076       .  S
Fe45         O50   2.049       .  S
Fe45         O56   1.947       .  S
Fe46         O49   2.038       .  S
Fe46         O53   2.070       .  S
Fe46         O57   2.046       .  S
Fe46         O62   2.072       .  S
Fe46         O56   1.946       .  S
Fe47         O65   2.088       .  S
Fe47         O52   2.088       .  S
Fe47         O59   2.067       .  S
Fe47         O48   2.085       .  S
Fe47         O56   1.962       .  S
O48          C55   1.267       .  A
O49          C63   1.261       .  A
O50          C55   1.262       .  A
O51          C54   1.278       .  A
O52          C64   1.277       .  A
O53          C66   1.266       .  A
C54          O59   1.276       .  A
C54         C506   1.472       .  S
C55         C489   1.474       .  S
O57          C60   1.266       .  A
O58          C60   1.272       .  A
C60         C510   1.461       .  S
O61          C66   1.264       .  A
O62          C64   1.274       .  A
C63          O65   1.270       .  A
C63         C493   1.468       .  S
C64         C497   1.477       .  S
C66         C526   1.469       .  S
Fe67         O83   2.085       .  S
Fe67         O73   2.029       .  S
Fe67         O80   2.056       .  S
Fe67         O72   2.068       .  S
Fe67         O78   1.957       .  S
Fe68         O71   2.089       .  S
Fe68         O75   2.044       .  S
Fe68         O79   2.102       .  S
Fe68         O84   2.054       .  S
Fe68         O78   1.954       .  S
Fe69         O87   2.069       .  S
Fe69         O74   2.107       .  S
Fe69         O81   2.111       .  S
Fe69         O70   2.076       .  S
Fe69         O78   1.965       .  S
O70          C77   1.264       .  A
O71          C85   1.269       .  A
O72          C77   1.265       .  A
O73          C76   1.273       .  A
O74          C86   1.279       .  A
O75          C88   1.261       .  A
C76          O81   1.283       .  A
C76         C482   1.475       .  S
C77         C473   1.485       .  S
O79          C82   1.278       .  A
O80          C82   1.271       .  A
C82         C477   1.471       .  S
O83          C88   1.268       .  A
O84          C86   1.271       .  A
C85          O87   1.267       .  A
C85         C513   1.486       .  S
C86         C498   1.476       .  S
C88         C485   1.471       .  S
Fe89        O105   2.072       .  S
Fe89         O95   2.056       .  S
Fe89        O102   2.045       .  S
Fe89         O94   2.076       .  S
Fe89        O100   1.955       .  S
Fe90         O93   2.072       .  S
Fe90         O97   2.055       .  S
Fe90        O101   2.063       .  S
Fe90        O106   2.043       .  S
Fe90        O100   1.955       .  S
Fe91        O109   2.104       .  S
Fe91         O96   2.085   1_655  S
Fe91        O103   2.088       .  S
Fe91         O92   2.089   1_655  S
Fe91        O100   1.964   1_655  S
O92          C99   1.282       .  A
O93         C107   1.273   1_455  A
O94          C99   1.278       .  A
O95          C98   1.263   1_455  A
O96         C108   1.267       .  A
O97         C110   1.269       .  A
C98         O103   1.266       .  A
C98         C453   1.482       .  S
C99         C465   1.485       .  S
O101        C104   1.264       .  A
O102        C104   1.264       .  A
C104        C457   1.469       .  S
O105        C110   1.272       .  A
O106        C108   1.262       .  A
C107        O109   1.282       .  A
C107        C461   1.483       .  S
C108        C486   1.474       .  S
C110        C469   1.466   1_554  S
Fe111       O127   2.076       .  S
Fe111       O117   2.048       .  S
Fe111       O124   2.039       .  S
Fe111       O116   2.089       .  S
Fe111       O122   1.955       .  S
Fe112       O115   2.095       .  S
Fe112       O119   2.043       .  S
Fe112       O123   2.077       .  S
Fe112       O128   2.052       .  S
Fe112       O122   1.943       .  S
Fe113       O131   2.092   1_455  S
Fe113       O118   2.077       .  S
Fe113       O125   2.082   1_455  S
Fe113       O114   2.072       .  S
Fe113       O122   1.958       .  S
O114        C121   1.279       .  A
O115        C129   1.279       .  A
O116        C121   1.280       .  A
O117        C120   1.261   1_455  A
O118        C130   1.265       .  A
O119        C132   1.267       .  A
C120        O125   1.265       .  A
C120        C445   1.473       .  S
C121        C478   1.477       .  S
O123        C126   1.269       .  A
O124        C126   1.265       .  A
C126        C494   1.470       .  S
O127        C132   1.272       .  A
O128        C130   1.262       .  A
C129        O131   1.281   1_455  A
C129        C462   1.484   1_455  S
C130        C449   1.472       .  S
C132       C1025   1.460       .  S
Fe133       O149   2.044       .  S
Fe133       O139   2.075       .  S
Fe133       O146   2.075       .  S
Fe133       O138   2.049   1_565  S
Fe133       O144   1.952       .  S
Fe134       O137   2.050       .  S
Fe134       O141   2.075       .  S
Fe134       O145   2.052       .  S
Fe134       O150   2.069       .  S
Fe134       O144   1.948       .  S
Fe135       O153   2.071       .  S
Fe135       O140   2.086   1_565  S
Fe135       O147   2.060       .  S
Fe135       O136   2.086   1_565  S
Fe135       O144   1.968       .  S
O136        C143   1.268       .  A
O137        C151   1.264       .  A
O138        C143   1.262       .  A
O139        C142   1.276       .  A
O140        C152   1.279   1_545  A
O141        C154   1.268       .  A
C142        O147   1.273       .  A
C142        C541   1.469       .  S
C143        C438   1.474       .  S
O145        C148   1.267       .  A
O146        C148   1.271       .  A
C148        C538   1.464       .  S
O149        C154   1.265       .  A
O150        C152   1.273       .  A
C151        O153   1.266       .  A
C151        C458   1.466       .  S
C152        C442   1.472   1_565  S
C154        C518   1.473       .  S
Fe155       O171   2.069       .  S
Fe155       O161   2.036       .  S
Fe155       O168   2.065       .  S
Fe155       O160   2.075       .  S
Fe155       O166   1.970       .  S
Fe156       O159   2.083       .  S
Fe156       O163   2.056       .  S
Fe156       O167   2.089       .  S
Fe156       O172   2.065       .  S
Fe156       O166   1.959       .  S
Fe157       O175   2.059       .  S
Fe157       O162   2.092   1_565  S
Fe157       O169   2.095       .  S
Fe157       O158   2.069   1_565  S
Fe157       O166   1.974       .  S
O158        C165   1.266       .  A
O159        C173   1.270       .  A
O160        C165   1.270   1_565  A
O161        C164   1.268       .  A
O162        C174   1.274   1_545  A
O163        C176   1.264       .  A
C164        O169   1.275       .  A
C164        C470   1.474       .  S
C165        C433   1.479       .  S
O167        C170   1.275       .  A
O168        C170   1.272       .  A
C170        C466   1.472       .  S
O171        C176   1.267       .  A
O172        C174   1.272       .  A
C173        O175   1.266       .  A
C173        C533   1.477       .  S
C174        C441   1.478   1_565  S
C176        C450   1.474       .  S
Fe177       O193   2.069       .  S
Fe177       O183   2.068       .  S
Fe177       O190   2.086       .  S
Fe177       O182   2.044       .  S
Fe177       O188   1.958       .  S
Fe178       O181   2.068       .  S
Fe178       O185   2.085       .  S
Fe178       O189   2.053       .  S
Fe178       O194   2.068       .  S
Fe178       O188   1.951       .  S
Fe179       O197   2.089       .  S
Fe179       O184   2.052       .  S
Fe179       O191   2.081       .  S
Fe179       O180   2.079       .  S
Fe179       O188   1.961       .  S
O180        C187   1.273       .  A
O181        C195   1.275       .  A
O182        C187   1.271       .  A
O183        C186   1.269       .  A
O184        C196   1.264       .  A
O185        C198   1.273       .  A
C186        O191   1.270       .  A
C186        C502   1.485       .  S
C187        C426   1.460       .  S
O189        C192   1.263       .  A
O190        C192   1.271       .  A
C192        C421   1.473       .  S
O193        C198   1.272       .  A
O194        C196   1.267       .  A
C195        O197   1.275       .  A
C195        C417   1.477       .  S
C196        C413   1.468       .  S
C198        C429   1.472       .  S
Fe199       O215   2.059       .  S
Fe199       O205   2.077       .  S
Fe199       O212   2.088       .  S
Fe199       O204   2.030       .  S
Fe199       O210   1.942       .  S
Fe200       O203   2.059       .  S
Fe200       O207   2.102       .  S
Fe200       O211   2.057       .  S
Fe200       O216   2.092       .  S
Fe200       O210   1.937       .  S
Fe201       O219   2.097       .  S
Fe201       O206   2.044       .  S
Fe201       O213   2.064       .  S
Fe201       O202   2.098       .  S
Fe201       O210   1.957       .  S
O202        C209   1.275       .  A
O203        C217   1.271       .  A
O204        C209   1.269       .  A
O205        C208   1.272       .  A
O206        C218   1.265       .  A
O207        C220   1.277       .  A
C208        O213   1.268       .  A
C208        C446   1.476       .  S
C209        C401   1.469       .  S
O211        C214   1.266       .  A
O212        C214   1.272       .  A
C214        C406   1.478       .  S
O215        C220   1.270       .  A
O216        C218   1.275       .  A
C217        O219   1.275       .  A
C217        C418   1.476       .  S
C218        C409   1.471       .  S
C220        C398   1.472       .  S
Fe221       O237   2.047       .  S
Fe221       O227   2.086       .  S
Fe221       O234   2.073       .  S
Fe221       O226   2.050       .  S
Fe221       O232   1.953       .  S
Fe222       O225   2.047       .  S
Fe222       O229   2.071       .  S
Fe222       O233   2.047       .  S
Fe222       O238   2.086       .  S
Fe222       O232   1.948       .  S
Fe223       O241   2.082       .  S
Fe223       O228   2.109       .  S
Fe223       O235   2.084       .  S
Fe223       O224   2.095   1_655  S
Fe223       O232   1.956       .  S
O224        C231   1.267   1_455  A
O225        C239   1.262       .  A
O226        C231   1.260       .  A
O227        C230   1.281       .  A
O228        C240   1.286       .  A
O229        C242   1.267       .  A
C230        O235   1.282       .  A
C230        C397   1.482       .  S
C231        C474   1.482   1_655  S
O233        C236   1.268       .  A
O234        C236   1.273       .  A
C236        C402   1.462   1_554  S
O237        C242   1.265       .  A
O238        C240   1.276       .  A
C239        O241   1.266       .  A
C239        C389   1.473       .  S
C240        C393   1.489       .  S
C242        C414   1.470       .  S
Fe243       O259   2.027       .  S
Fe243       O249   2.100       .  S
Fe243       O256   2.086       .  S
Fe243       O248   2.043       .  S
Fe243       O254   1.946       .  S
Fe244       O247   2.058       .  S
Fe244       O251   2.091       .  S
Fe244       O255   2.052       .  S
Fe244       O260   2.101       .  S
Fe244       O254   1.942       .  S
Fe245       O263   2.082       .  S
Fe245       O250   2.099       .  S
Fe245       O257   2.070       .  S
Fe245       O246   2.097   1_655  S
Fe245       O254   1.954       .  S
O246        C253   1.266       .  A
O247        C261   1.263       .  A
O248        C253   1.257   1_655  A
O249        C252   1.283       .  A
O250        C262   1.285       .  A
O251        C264   1.273       .  A
C252        O257   1.280       .  A
C252        C381   1.481       .  S
C253        C434   1.478       .  S
O255        C258   1.268       .  A
O256        C258   1.274       .  A
C258        C921   1.470       .  S
O259        C264   1.261       .  A
O260        C262   1.281       .  A
C261        O263   1.266       .  A
C261        C405   1.477       .  S
C262        C394   1.488       .  S
C264        C385   1.466       .  S
Fe265       O281   2.097       .  S
Fe265       O271   2.059       .  S
Fe265       O278   2.048       .  S
Fe265       O270   2.073       .  S
Fe265       O276   1.953       .  S
Fe266       O269   2.087       .  S
Fe266       O273   2.038       .  S
Fe266       O277   2.082       .  S
Fe266       O282   2.060       .  S
Fe266       O276   1.949       .  S
Fe267       O285   2.075       .  S
Fe267       O272   2.074       .  S
Fe267       O279   2.095   1_545  S
Fe267       O268   2.056       .  S
Fe267       O276   1.951       .  S
O268        C275   1.266       .  A
O269        C283   1.274       .  A
O270        C275   1.271       .  A
O271        C274   1.271   1_545  A
O272        C284   1.273       .  A
O273        C286   1.267       .  A
C274        O279   1.274       .  A
C274        C522   1.475       .  S
C275        C369   1.469       .  S
O277        C280   1.268       .  A
O278        C280   1.266       .  A
C280        C362   1.468       .  S
O281        C286   1.274       .  A
O282        C284   1.266       .  A
C283        O285   1.272       .  A
C283        C366   1.479       .  S
C284        C386   1.475       .  S
C286        C373   1.460       .  S
Fe287       O303   2.060       .  S
Fe287       O293   2.070       .  S
Fe287       O300   2.084       .  S
Fe287       O292   2.034       .  S
Fe287       O298   1.946       .  S
Fe288       O291   2.051       .  S
Fe288       O295   2.100       .  S
Fe288       O299   2.049       .  S
Fe288       O304   2.091       .  S
Fe288       O298   1.944       .  S
Fe289       O307   2.116       .  S
Fe289       O294   2.055       .  S
Fe289       O301   2.085   1_545  S
Fe289       O290   2.111       .  S
Fe289       O298   1.956       .  S
O290        C297   1.279       .  A
O291        C305   1.270       .  A
O292        C297   1.270       .  A
O293        C296   1.270   1_545  A
O294        C306   1.267       .  A
O295        C308   1.276       .  A
C296        O301   1.272       .  A
C296        C454   1.487       .  S
C297        C378   1.479       .  S
O299        C302   1.264       .  A
O300        C302   1.271       .  A
C302        C390   1.473       .  S
O303        C308   1.269       .  A
O304        C306   1.273       .  A
C305        O307   1.281       .  A
C305        C365   1.484       .  S
C306        C357   1.477       .  S
C308        C382   1.473       .  S
Fe309       O325   2.102       .  S
Fe309       O315   2.034       .  S
Fe309       O322   2.057       .  S
Fe309       O314   2.063       .  S
Fe309       O320   1.939       .  S
Fe310       O313   2.067       .  S
Fe310       O317   2.051       .  S
Fe310       O321   2.074       .  S
Fe310       O326   2.045       .  S
Fe310       O320   1.938       .  S
Fe311       O329   2.059       .  S
Fe311       O316   2.137       .  S
Fe311       O323   2.115       .  S
Fe311       O312   2.076       .  S
Fe311       O320   1.936       .  S
O312        C319   1.269       .  A
O313        C327   1.264       .  A
O314        C319   1.269       .  A
O315        C318   1.270       .  A
O316        C328   1.287       .  A
O317        C330   1.267       .  A
C318        O323   1.283       .  A
C318        C430   1.474       .  S
C319        C490   1.478       .  S
O321        C324   1.268       .  A
O322        C324   1.264       .  A
C324        C969   1.460       .  S
O325        C330   1.277       .  A
O326        C328   1.270       .  A
C327        O329   1.265       .  A
C327        C361   1.466       .  S
C328        C353   1.482       .  S
C330        C410   1.471       .  S
Fe331       O347   2.094       .  S
Fe331       O337   2.022       .  S
Fe331       O344   2.047       .  S
Fe331       O336   2.064       .  S
Fe331       O342   1.947       .  S
Fe332       O335   2.075       .  S
Fe332       O339   2.061       .  S
Fe332       O343   2.096       .  S
Fe332       O348   2.053       .  S
Fe332       O342   1.942       .  S
Fe333       O351   2.050       .  S
Fe333       O338   2.121       .  S
Fe333       O345   2.125       .  S
Fe333       O334   2.067       .  S
Fe333       O342   1.952       .  S
O334        C341   1.264       .  A
O335        C349   1.270       .  A
O336        C341   1.266       .  A
O337        C340   1.272       .  A
O338        C350   1.283       .  A
O339        C352   1.264       .  A
C340        O345   1.286       .  A
C340        C374   1.476       .  S
C341        C437   1.477       .  S
O343        C346   1.277       .  A
O344        C346   1.268       .  A
C346        C370   1.467   1_554  S
O347        C352   1.271       .  A
O348        C350   1.271       .  A
C349        O351   1.264       .  A
C349        C422   1.472       .  S
C350        C354   1.482       .  S
C352        C358   1.479       .  S
C353        H355   1.088       .  S
C353        C898   1.345       .  D
C354        H356   1.088   1_554  S
C354        C897   1.345       .  D
C357        H359   1.087       .  S
C357        C358   1.343       .  D
C358        H360   1.087       .  S
C361        H363   1.088       .  S
C361        C362   1.340       .  D
C362        H364   1.087       .  S
C365        H367   1.086       .  S
C365        C366   1.346       .  D
C366        H368   1.087       .  S
C369        H371   1.087       .  S
C369        C914   1.340       .  D
C370        H372   1.087       .  S
C370        C913   1.340       .  D
C373        H375   1.087       .  S
C373        C374   1.349       .  D
C374        H376   1.087       .  S
C377        C802   1.467   1_554  S
C377        H379   1.087       .  S
C377        C378   1.345       .  D
C378        H380   1.086       .  S
C381        H383   1.087       .  S
C381        C382   1.346       .  D
C382        H384   1.086       .  S
C385        H387   1.088       .  S
C385        C386   1.338       .  D
C386        H388   1.086       .  S
C389        H391   1.087       .  S
C389        C390   1.343       .  D
C390        H392   1.087       .  S
C393        H395   1.086   1_554  S
C393        C938   1.351       .  D
C394        H396   1.087       .  S
C394        C937   1.351       .  D
C397        H399   1.087       .  S
C397        C398   1.348       .  D
C398        H400   1.086       .  S
C401        H403   1.087       .  S
C401        C946   1.341       .  D
C402        H404   1.088       .  S
C402        C945   1.341       .  D
C405        H407   1.087       .  S
C405        C406   1.345       .  D
C406        H408   1.087       .  S
C409        H411   1.088       .  S
C409        C410   1.338       .  D
C410        H412   1.087       .  S
C413        H415   1.087       .  S
C413        C414   1.342       .  D
C414        H416   1.087       .  S
C417        H419   1.087       .  S
C417        C418   1.339       .  D
C418        H420   1.087       .  S
C421        H423   1.087       .  S
C421        C422   1.340       .  D
C422        H424   1.087       .  S
C425        C868   1.461   1_554  S
C425        H971   1.087       .  S
C425        C426   1.337       .  D
C426        H428   1.087       .  S
H427        C969   1.087       .  S
C429        H431   1.087       .  S
C429        C430   1.348       .  D
C430        H432   1.087       .  S
C433        H435   1.086       .  S
C433        C434   1.347       .  D
C434        H436   1.088       .  S
C437        H439   1.086       .  S
C437        C438   1.349       .  D
C438        H440   1.088       .  S
C441        H443   1.087       .  S
C441        C442   1.343       .  D
C442        H444   1.087       .  S
C445        H447   1.088       .  S
C445        C446   1.348       .  D
C446        H448   1.086       .  S
C449        H451   1.087       .  S
C449        C450   1.344       .  D
C450        H452   1.087       .  S
C453        H455   1.088       .  S
C453        C454   1.353       .  D
C454        H456   1.086       .  S
C457        H459   1.087       .  S
C457        C458   1.341       .  D
C458        H460   1.087       .  S
C461        H463   1.086   1_554  S
C461       C1006   1.349       .  D
C462        H464   1.087       .  S
C462       C1005   1.349       .  D
C465        H467   1.087       .  S
C465        C466   1.351       .  D
C466        H468   1.086       .  S
C469        H471   1.088       .  S
C469       C1014   1.344       .  D
C470        H472   1.087       .  S
C470       C1013   1.345       .  D
C473        H475   1.086       .  S
C473        C474   1.350       .  D
C474        H476   1.088       .  S
C477        H479   1.086       .  S
C477        C478   1.345       .  D
C478        H480   1.087       .  S
C481        C676   1.462   1_554  S
C481        H483   1.088       .  S
C481        C482   1.345       .  D
C482        H484   1.086       .  S
C485        H487   1.087       .  S
C485        C486   1.344       .  D
C486        H488   1.087       .  S
C489        H491   1.088       .  S
C489        C490   1.348       .  D
C490        H492   1.086       .  S
C493        H495   1.087       .  S
C493        C494   1.346       .  D
C494        H496   1.087       .  S
C497        H499   1.086       .  S
C497        C498   1.343       .  D
C498        H500   1.088       .  S
C501        H503   1.088       .  S
C501        C502   1.352       .  D
C502        H504   1.086       .  S
C505        H507   1.088       .  S
C505       C1050   1.344       .  D
C506        H508   1.087       .  S
C506       C1049   1.344       .  D
C509        H511   1.087       .  S
C509        C510   1.339       .  D
C510        H512   1.088       .  S
C513        H515   1.087       .  S
C513        C514   1.354       .  D
C514        H516   1.086       .  S
C517        H519   1.087       .  S
C517        C518   1.343       .  D
C518        H520   1.087       .  S
C521        H523   1.088       .  S
C521        C522   1.348       .  D
C522        H524   1.086       .  S
C525        H527   1.088       .  S
C525        C526   1.341       .  D
C526        H528   1.087       .  S
C529        H531   1.089       .  S
C529       C1074   1.357       .  D
C530        H532   1.090       .  S
C530       C1073   1.356   1_554  D
C533        H535   1.088       .  S
C533        C534   1.347       .  D
C534        H536   1.086       .  S
C537        H539   1.087       .  S
C537        C538   1.342       .  D
C538        H540   1.087       .  S
C541        H543   1.087       .  S
C541        C542   1.343       .  D
C542        C566   1.465       .  S
C542       H1088   1.088       .  S
H544       C1086   1.088       .  S
Fe545       O561   2.066       .  S
Fe545       O551   2.056       .  S
Fe545       O558   2.038       .  S
Fe545       O550   2.074       .  S
Fe545       O556   1.966       .  S
Fe546       O549   2.121       .  S
Fe546       O553   2.059       .  S
Fe546       O557   2.100       .  S
Fe546       O562   2.053       .  S
Fe546       O556   1.974       .  S
Fe547       O565   2.061       .  S
Fe547       O552   2.065       .  S
Fe547       O559   2.086       .  S
Fe547       O548   2.061       .  S
Fe547       O556   1.962       .  S
O548        C555   1.272       .  A
O549        C563   1.278       .  A
O550        C555   1.274       .  A
O551        C554   1.264       .  A
O552        C564   1.264       .  A
O553        C566   1.268   1_556  A
C554        O559   1.268       .  A
C554       C1065   1.480       .  S
C555       C1081   1.472       .  S
O557        C560   1.274       .  A
O558        C560   1.264       .  A
C560       C1078   1.480       .  S
O561        C566   1.269   1_556  A
O562        C564   1.264       .  A
C563        O565   1.279       .  A
C563       C1073   1.487       .  S
C564       C1069   1.466       .  S
Fe567       O583   2.071       .  S
Fe567       O573   2.056       .  S
Fe567       O580   2.044       .  S
Fe567       O572   2.074       .  S
Fe567       O578   1.962       .  S
Fe568       O571   2.138       .  S
Fe568       O575   2.056       .  S
Fe568       O579   2.119       .  S
Fe568       O584   2.056       .  S
Fe568       O578   1.969       .  S
Fe569       O587   2.055       .  S
Fe569       O574   2.069       .  S
Fe569       O581   2.090       .  S
Fe569       O570   2.055       .  S
Fe569       O578   1.964       .  S
O570        C577   1.271       .  A
O571        C585   1.282       .  A
O572        C577   1.276       .  A
O573        C576   1.264       .  A
O574        C586   1.265       .  A
O575        C588   1.267       .  A
C576        O581   1.267       .  A
C576       C1045   1.481       .  S
C577       C1053   1.468       .  S
O579        C582   1.279       .  A
O580        C582   1.265       .  A
C582       C1058   1.495       .  S
O583        C588   1.270       .  A
O584        C586   1.264       .  A
C585        O587   1.278       .  A
C585       C1074   1.492       .  S
C586       C1061   1.470       .  S
C588       C1049   1.466       .  S
Fe589       O605   2.042       .  S
Fe589       O595   2.078       .  S
Fe589       O602   2.076       .  S
Fe589       O594   2.049       .  S
Fe589       O600   1.947       .  S
Fe590       O593   2.038       .  S
Fe590       O597   2.069       .  S
Fe590       O601   2.045       .  S
Fe590       O606   2.073       .  S
Fe590       O600   1.945       .  S
Fe591       O609   2.090       .  S
Fe591       O596   2.088       .  S
Fe591       O603   2.066       .  S
Fe591       O592   2.088       .  S
Fe591       O600   1.962       .  S
O592        C599   1.268       .  A
O593        C607   1.260       .  A
O594        C599   1.262       .  A
O595        C598   1.278       .  A
O596        C608   1.278       .  A
O597        C610   1.266       .  A
C598        O603   1.276       .  A
C598       C1050   1.472       .  S
C599       C1033   1.475       .  S
O601        C604   1.266       .  A
O602        C604   1.273       .  A
C604       C1054   1.460       .  S
O605        C610   1.264       .  A
O606        C608   1.274       .  A
C607        O609   1.270       .  A
C607       C1037   1.469       .  S
C608       C1041   1.477       .  S
C610       C1070   1.469       .  S
Fe611       O627   2.085       .  S
Fe611       O617   2.026       .  S
Fe611       O624   2.058       .  S
Fe611       O616   2.064       .  S
Fe611       O622   1.956       .  S
Fe612       O615   2.089       .  S
Fe612       O619   2.043       .  S
Fe612       O623   2.101       .  S
Fe612       O628   2.054       .  S
Fe612       O622   1.953       .  S
Fe613       O631   2.069       .  S
Fe613       O618   2.108       .  S
Fe613       O625   2.110       .  S
Fe613       O614   2.077       .  S
Fe613       O622   1.965       .  S
O614        C621   1.265       .  A
O615        C629   1.269       .  A
O616        C621   1.264       .  A
O617        C620   1.274       .  A
O618        C630   1.280       .  A
O619        C632   1.260       .  A
C620        O625   1.283       .  A
C620       C1026   1.475       .  S
C621       C1017   1.484       .  S
O623        C626   1.278       .  A
O624        C626   1.271       .  A
C626       C1021   1.472       .  S
O627        C632   1.268       .  A
O628        C630   1.271       .  A
C629        O631   1.267       .  A
C629       C1057   1.486       .  S
C630       C1042   1.476       .  S
C632       C1029   1.471       .  S
Fe633       O649   2.071       .  S
Fe633       O639   2.054       .  S
Fe633       O646   2.048       .  S
Fe633       O638   2.073       .  S
Fe633       O644   1.957       .  S
Fe634       O637   2.071       .  S
Fe634       O641   2.056       .  S
Fe634       O645   2.065       .  S
Fe634       O650   2.043       .  S
Fe634       O644   1.954       .  S
Fe635       O653   2.105       .  S
Fe635       O640   2.083   1_655  S
Fe635       O647   2.086       .  S
Fe635       O636   2.091   1_655  S
Fe635       O644   1.967   1_655  S
O636        C643   1.282       .  A
O637        C651   1.273   1_455  A
O638        C643   1.277       .  A
O639        C642   1.263   1_455  A
O640        C652   1.266       .  A
O641        C654   1.269       .  A
C642        O647   1.266       .  A
C642        C997   1.480       .  S
C643       C1009   1.485       .  S
O645        C648   1.265       .  A
O646        C648   1.265       .  A
C648       C1001   1.470       .  S
O649        C654   1.271       .  A
O650        C652   1.262       .  A
C651        O653   1.283       .  A
C651       C1005   1.484       .  S
C652       C1030   1.474       .  S
C654       C1013   1.466       .  S
Fe655       O671   2.077       .  S
Fe655       O661   2.049       .  S
Fe655       O668   2.040       .  S
Fe655       O660   2.093       .  S
Fe655       O666   1.953       .  S
Fe656       O659   2.095       .  S
Fe656       O663   2.047       .  S
Fe656       O667   2.076       .  S
Fe656       O672   2.052       .  S
Fe656       O666   1.943       .  S
Fe657       O675   2.091   1_455  S
Fe657       O662   2.076       .  S
Fe657       O669   2.079   1_455  S
Fe657       O658   2.070       .  S
Fe657       O666   1.958       .  S
O658        C665   1.279       .  A
O659        C673   1.279       .  A
O660        C665   1.281       .  A
O661        C664   1.260   1_455  A
O662        C674   1.264       .  A
O663        C676   1.268       .  A
C664        O669   1.264       .  A
C664        C989   1.473       .  S
C665       C1022   1.476       .  S
O667        C670   1.269       .  A
O668        C670   1.264       .  A
C670       C1038   1.470       .  S
O671        C676   1.273       .  A
O672        C674   1.262       .  A
C673        O675   1.281   1_455  A
C673       C1006   1.483   1_456  S
C674        C993   1.472       .  S
Fe677       O693   2.048       .  S
Fe677       O683   2.072       .  S
Fe677       O690   2.074       .  S
Fe677       O682   2.051   1_565  S
Fe677       O688   1.956       .  S
Fe678       O681   2.051       .  S
Fe678       O685   2.072       .  S
Fe678       O689   2.053       .  S
Fe678       O694   2.068       .  S
Fe678       O688   1.950       .  S
Fe679       O697   2.074       .  S
Fe679       O684   2.084   1_565  S
Fe679       O691   2.057       .  S
Fe679       O680   2.086   1_565  S
Fe679       O688   1.970       .  S
O680        C687   1.268       .  A
O681        C695   1.263       .  A
O682        C687   1.263       .  A
O683        C686   1.276       .  A
O684        C696   1.278   1_545  A
O685        C698   1.267       .  A
C686        O691   1.273       .  A
C686       C1085   1.465       .  S
C687        C982   1.475       .  S
O689        C692   1.267       .  A
O690        C692   1.271       .  A
C692       C1082   1.465       .  S
O693        C698   1.266       .  A
O694        C696   1.274       .  A
C695        O697   1.267       .  A
C695       C1002   1.469       .  S
C696        C986   1.472   1_565  S
C698       C1062   1.472       .  S
Fe699       O715   2.073       .  S
Fe699       O705   2.035       .  S
Fe699       O712   2.063       .  S
Fe699       O704   2.082       .  S
Fe699       O710   1.965       .  S
Fe700       O703   2.084       .  S
Fe700       O707   2.051       .  S
Fe700       O711   2.089       .  S
Fe700       O716   2.061       .  S
Fe700       O710   1.957       .  S
Fe701       O719   2.058       .  S
Fe701       O706   2.095   1_565  S
Fe701       O713   2.095       .  S
Fe701       O702   2.073   1_565  S
Fe701       O710   1.970       .  S
O702        C709   1.267       .  A
O703        C717   1.270       .  A
O704        C709   1.272   1_565  A
O705        C708   1.268       .  A
O706        C718   1.275   1_545  A
O707        C720   1.263       .  A
C708        O713   1.275       .  A
C708       C1014   1.473       .  S
C709        C977   1.484       .  S
O711        C714   1.275       .  A
O712        C714   1.272       .  A
C714       C1010   1.471       .  S
O715        C720   1.268       .  A
O716        C718   1.272       .  A
C717        O719   1.266       .  A
C717       C1077   1.476       .  S
C718        C985   1.478   1_565  S
C720        C994   1.472       .  S
Fe721       O737   2.065       .  S
Fe721       O727   2.067       .  S
Fe721       O734   2.085       .  S
Fe721       O726   2.043       .  S
Fe721       O732   1.957       .  S
Fe722       O725   2.069       .  S
Fe722       O729   2.082       .  S
Fe722       O733   2.052       .  S
Fe722       O738   2.067       .  S
Fe722       O732   1.951       .  S
Fe723       O741   2.089       .  S
Fe723       O728   2.056       .  S
Fe723       O735   2.082       .  S
Fe723       O724   2.078       .  S
Fe723       O732   1.959       .  S
O724        C731   1.273       .  A
O725        C739   1.275       .  A
O726        C731   1.271       .  A
O727        C730   1.269       .  A
O728        C740   1.265       .  A
O729        C742   1.272       .  A
C730        O735   1.271       .  A
C730       C1046   1.484       .  S
C731        C970   1.460       .  S
O733        C736   1.264       .  A
O734        C736   1.272       .  A
C736        C965   1.472       .  S
O737        C742   1.270       .  A
O738        C740   1.267       .  A
C739        O741   1.275       .  A
C739        C961   1.477       .  S
C740        C957   1.469       .  S
C742        C973   1.468       .  S
Fe743       O759   2.060       .  S
Fe743       O749   2.078       .  S
Fe743       O756   2.087       .  S
Fe743       O748   2.033       .  S
Fe743       O754   1.942       .  S
Fe744       O747   2.058       .  S
Fe744       O751   2.099       .  S
Fe744       O755   2.058       .  S
Fe744       O760   2.090       .  S
Fe744       O754   1.937       .  S
Fe745       O763   2.099       .  S
Fe745       O750   2.043       .  S
Fe745       O757   2.063       .  S
Fe745       O746   2.099       .  S
Fe745       O754   1.957       .  S
O746        C753   1.275       .  A
O747        C761   1.270       .  A
O748        C753   1.269       .  A
O749        C752   1.272       .  A
O750        C762   1.265       .  A
O751        C764   1.276       .  A
C752        O757   1.268       .  A
C752        C990   1.475       .  S
C753        C945   1.472       .  S
O755        C758   1.266       .  A
O756        C758   1.272       .  A
C758        C950   1.479       .  S
O759        C764   1.270       .  A
O760        C762   1.275       .  A
C761        O763   1.275       .  A
C761        C962   1.476       .  S
C762        C953   1.469       .  S
C764        C942   1.471       .  S
Fe765       O781   2.048       .  S
Fe765       O771   2.081       .  S
Fe765       O778   2.069       .  S
Fe765       O770   2.053       .  S
Fe765       O776   1.954       .  S
Fe766       O769   2.041       .  S
Fe766       O773   2.070       .  S
Fe766       O777   2.047       .  S
Fe766       O782   2.087       .  S
Fe766       O776   1.949       .  S
Fe767       O785   2.083       .  S
Fe767       O772   2.109       .  S
Fe767       O779   2.086       .  S
Fe767       O768   2.089   1_655  S
Fe767       O776   1.958       .  S
O768        C775   1.266   1_455  A
O769        C783   1.261       .  A
O770        C775   1.261       .  A
O771        C774   1.280       .  A
O772        C784   1.285       .  A
O773        C786   1.266       .  A
C774        O779   1.283       .  A
C774        C941   1.483       .  S
C775       C1018   1.481   1_655  S
O777        C780   1.268       .  A
O778        C780   1.272       .  A
C780        C946   1.461       .  S
O781        C786   1.265       .  A
O782        C784   1.276       .  A
C783        O785   1.266       .  A
C783        C933   1.472       .  S
C784        C937   1.489       .  S
C786        C958   1.470       .  S
Fe787       O803   2.025       .  S
Fe787       O793   2.099       .  S
Fe787       O800   2.082       .  S
Fe787       O792   2.044       .  S
Fe787       O798   1.947       .  S
Fe788       O791   2.059       .  S
Fe788       O795   2.093       .  S
Fe788       O799   2.052       .  S
Fe788       O804   2.101       .  S
Fe788       O798   1.945       .  S
Fe789       O807   2.083       .  S
Fe789       O794   2.101       .  S
Fe789       O801   2.072       .  S
Fe789       O790   2.105   1_655  S
Fe789       O798   1.954       .  S
O790        C797   1.267       .  A
O791        C805   1.264       .  A
O792        C797   1.258   1_655  A
O793        C796   1.283       .  A
O794        C806   1.286       .  A
O795        C808   1.273       .  A
C796        O801   1.280       .  A
C796        C925   1.482       .  S
C797        C978   1.482       .  S
O799        C802   1.268       .  A
O800        C802   1.274       .  A
O803        C808   1.260       .  A
O804        C806   1.281       .  A
C805        O807   1.266       .  A
C805        C949   1.478       .  S
C806        C938   1.489   1_556  S
C808        C929   1.466       .  S
Fe809       O825   2.097       .  S
Fe809       O815   2.059       .  S
Fe809       O822   2.047       .  S
Fe809       O814   2.072       .  S
Fe809       O820   1.954       .  S
Fe810       O813   2.084       .  S
Fe810       O817   2.038       .  S
Fe810       O821   2.082       .  S
Fe810       O826   2.060       .  S
Fe810       O820   1.950       .  S
Fe811       O829   2.075       .  S
Fe811       O816   2.076       .  S
Fe811       O823   2.097   1_545  S
Fe811       O812   2.055       .  S
Fe811       O820   1.951       .  S
O812        C819   1.266       .  A
O813        C827   1.273       .  A
O814        C819   1.270       .  A
O815        C818   1.272   1_545  A
O816        C828   1.274       .  A
O817        C830   1.267       .  A
C818        O823   1.275       .  A
C818       C1066   1.476       .  S
C819        C913   1.468       .  S
O821        C824   1.268       .  A
O822        C824   1.266       .  A
C824        C906   1.468       .  S
O825        C830   1.274       .  A
O826        C828   1.266       .  A
C827        O829   1.272       .  A
C827        C910   1.478       .  S
C828        C930   1.477       .  S
C830        C917   1.460       .  S
Fe831       O847   2.063       .  S
Fe831       O837   2.068       .  S
Fe831       O844   2.081       .  S
Fe831       O836   2.041       .  S
Fe831       O842   1.946       .  S
Fe832       O835   2.052       .  S
Fe832       O839   2.100       .  S
Fe832       O843   2.048       .  S
Fe832       O848   2.094       .  S
Fe832       O842   1.944       .  S
Fe833       O851   2.113       .  S
Fe833       O838   2.057       .  S
Fe833       O845   2.084   1_545  S
Fe833       O834   2.110       .  S
Fe833       O842   1.957       .  S
O834        C841   1.279       .  A
O835        C849   1.270       .  A
O836        C841   1.271       .  A
O837        C840   1.269   1_545  A
O838        C850   1.268       .  A
O839        C852   1.276       .  A
C840        O845   1.272       .  A
C840        C998   1.485       .  S
C841        C922   1.481       .  S
O843        C846   1.264       .  A
O844        C846   1.270       .  A
C846        C934   1.470       .  S
O847        C852   1.270       .  A
O848        C850   1.274       .  A
C849        O851   1.280       .  A
C849        C909   1.482       .  S
C850        C901   1.480       .  S
C852        C926   1.475       .  S
Fe853       O869   2.100       .  S
Fe853       O859   2.031       .  S
Fe853       O866   2.054       .  S
Fe853       O858   2.065       .  S
Fe853       O864   1.939       .  S
Fe854       O857   2.067       .  S
Fe854       O861   2.051       .  S
Fe854       O865   2.077       .  S
Fe854       O870   2.046       .  S
Fe854       O864   1.938       .  S
Fe855       O873   2.059       .  S
Fe855       O860   2.136       .  S
Fe855       O867   2.111       .  S
Fe855       O856   2.077       .  S
Fe855       O864   1.937       .  S
O856        C863   1.270       .  A
O857        C871   1.264       .  A
O858        C863   1.270       .  A
O859        C862   1.269       .  A
O860        C872   1.287       .  A
O861        C874   1.267       .  A
C862        O867   1.281       .  A
C862        C974   1.470       .  S
C863       C1034   1.479       .  S
O865        C868   1.269       .  A
O866        C868   1.264       .  A
O869        C874   1.277       .  A
O870        C872   1.271       .  A
C871        O873   1.264       .  A
C871        C905   1.466       .  S
C872        C897   1.482   1_556  S
C874        C954   1.470       .  S
Fe875       O891   2.097       .  S
Fe875       O881   2.021       .  S
Fe875       O888   2.047       .  S
Fe875       O880   2.067       .  S
Fe875       O886   1.946       .  S
Fe876       O879   2.074       .  S
Fe876       O883   2.062       .  S
Fe876       O887   2.096       .  S
Fe876       O892   2.054       .  S
Fe876       O886   1.942       .  S
Fe877       O895   2.049       .  S
Fe877       O882   2.120       .  S
Fe877       O889   2.125       .  S
Fe877       O878   2.067       .  S
Fe877       O886   1.954       .  S
O878        C885   1.264       .  A
O879        C893   1.270       .  A
O880        C885   1.266       .  A
O881        C884   1.272       .  A
O882        C894   1.283       .  A
O883        C896   1.264       .  A
C884        O889   1.286       .  A
C884        C918   1.476       .  S
C885        C981   1.478       .  S
O887        C890   1.277       .  A
O888        C890   1.268       .  A
C890        C914   1.466       .  S
O891        C896   1.271       .  A
O892        C894   1.271       .  A
C893        O895   1.264       .  A
C893        C966   1.471       .  S
C894        C898   1.482       .  S
C896        C902   1.481       .  S
C897        H899   1.088       .  S
C898        H900   1.088       .  S
C901        H903   1.087       .  S
C901        C902   1.344       .  D
C902        H904   1.087       .  S
C905        H907   1.088       .  S
C905        C906   1.340       .  D
C906        H908   1.087       .  S
C909        H911   1.087       .  S
C909        C910   1.345       .  D
C910        H912   1.087       .  S
C913        H915   1.087       .  S
C914        H916   1.087       .  S
C917        H919   1.087       .  S
C917        C918   1.349       .  D
C918        H920   1.087       .  S
C921        H923   1.088       .  S
C921        C922   1.345       .  D
C922        H924   1.086       .  S
C925        H927   1.087       .  S
C925        C926   1.347       .  D
C926        H928   1.086       .  S
C929        H931   1.088       .  S
C929        C930   1.338       .  D
C930        H932   1.086       .  S
C933        H935   1.087       .  S
C933        C934   1.344       .  D
C934        H936   1.087       .  S
C937        H939   1.086       .  S
C938        H940   1.086       .  S
C941        H943   1.087       .  S
C941        C942   1.349       .  D
C942        H944   1.086       .  S
C945        H947   1.087       .  S
C946        H948   1.088       .  S
C949        H951   1.087       .  S
C949        C950   1.345       .  D
C950        H952   1.087       .  S
C953        H955   1.088       .  S
C953        C954   1.338       .  D
C954        H956   1.087       .  S
C957        H959   1.087       .  S
C957        C958   1.343       .  D
C958        H960   1.087       .  S
C961        H963   1.087       .  S
C961        C962   1.340       .  D
C962        H964   1.087       .  S
C965        H967   1.087       .  S
C965        C966   1.340       .  D
C966        H968   1.087       .  S
C969        C970   1.338       .  D
C970        H972   1.087       .  S
C973        H975   1.087       .  S
C973        C974   1.347       .  D
C974        H976   1.087       .  S
C977        H979   1.086       .  S
C977        C978   1.349       .  D
C978        H980   1.088       .  S
C981        H983   1.086       .  S
C981        C982   1.349       .  D
C982        H984   1.088       .  S
C985        H987   1.087       .  S
C985        C986   1.343       .  D
C986        H988   1.087       .  S
C989        H991   1.088       .  S
C989        C990   1.348       .  D
C990        H992   1.086       .  S
C993        H995   1.087       .  S
C993        C994   1.343       .  D
C994        H996   1.087       .  S
C997        H999   1.088       .  S
C997        C998   1.352       .  D
C998       H1000   1.086       .  S
C1001      H1003   1.087       .  S
C1001      C1002   1.343       .  D
C1002      H1004   1.087       .  S
C1005      H1007   1.086       .  S
C1006      H1008   1.087       .  S
C1009      H1011   1.087       .  S
C1009      C1010   1.351       .  D
C1010      H1012   1.086       .  S
C1013      H1015   1.088       .  S
C1014      H1016   1.087       .  S
C1017      H1019   1.086       .  S
C1017      C1018   1.351       .  D
C1018      H1020   1.088       .  S
C1021      H1023   1.086       .  S
C1021      C1022   1.345       .  D
C1022      H1024   1.087       .  S
C1025      H1027   1.087       .  S
C1025      C1026   1.345       .  D
C1026      H1028   1.086       .  S
C1029      H1031   1.087       .  S
C1029      C1030   1.343       .  D
C1030      H1032   1.087       .  S
C1033      H1035   1.088       .  S
C1033      C1034   1.349       .  D
C1034      H1036   1.086       .  S
C1037      H1039   1.087       .  S
C1037      C1038   1.347       .  D
C1038      H1040   1.087       .  S
C1041      H1043   1.086       .  S
C1041      C1042   1.343       .  D
C1042      H1044   1.088       .  S
C1045      H1047   1.088       .  S
C1045      C1046   1.353       .  D
C1046      H1048   1.086       .  S
C1049      H1051   1.088       .  S
C1050      H1052   1.087       .  S
C1053      H1055   1.087       .  S
C1053      C1054   1.340       .  D
C1054      H1056   1.088       .  S
C1057      H1059   1.087       .  S
C1057      C1058   1.355       .  D
C1058      H1060   1.086       .  S
C1061      H1063   1.087       .  S
C1061      C1062   1.342       .  D
C1062      H1064   1.087       .  S
C1065      H1067   1.088       .  S
C1065      C1066   1.348       .  D
C1066      H1068   1.086       .  S
C1069      H1071   1.087       .  S
C1069      C1070   1.341       .  D
C1070      H1072   1.087       .  S
C1073      H1075   1.089       .  S
C1074      H1076   1.090       .  S
C1077      H1079   1.088       .  S
C1077      C1078   1.346       .  D
C1078      H1080   1.086       .  S
C1081      H1083   1.087       .  S
C1081      C1082   1.342       .  D
C1082      H1084   1.087       .  S
C1085      H1087   1.087       .  S
C1085      C1086   1.342       .  D
