geometry optimzed in LAMMPS
_audit_creation_date              2020-11-30 
_audit_creation_method            'lammps2cif' 
_symmetry_space_group_name_H-M    'P1' 
_symmetry_Int_Tables_number       1 
_symmetry_cell_setting            triclinic 
loop_ 
_symmetry_equiv_pos_as_xyz 
  x,y,z 
_cell_length_a                    39.46368262 
_cell_length_b                    39.61723672623132 
_cell_length_c                    42.18778005412417 
_cell_angle_alpha                 90.76799834004652 
_cell_angle_beta                  89.41318981301872 
_cell_angle_gamma                 120.99835495900233 
loop_ 
_atom_site_label 
_atom_site_type_symbol 
_atom_site_fract_x 
_atom_site_fract_y 
_atom_site_fract_z 
_atom_site_charge 
O1          O  0.36965819  0.52387723  0.54767201    -0.85600
O2          O  0.29471044  0.51097162  0.55767935    -0.82600
C3          C  0.27207812  0.47414113  0.55602164     0.97900
O4          O  0.27573275  0.45260271  0.57578119    -0.82600
O5          O  0.31044079  0.43086579  0.62300378    -0.85300
C6          C  0.34115779  0.43088565  0.61303410     1.02400
O7          O  0.37229111  0.46262554  0.60616141    -0.78000
O8          O  0.41735598  0.53525249  0.58040851    -0.78200
C9          C  0.40394221  0.53030675  0.55234318     1.02400
O10         O  0.40092821  0.58881229  0.59197327    -0.85600
O11         O  0.32533177  0.56632429  0.60824789    -0.82600
C12         C  0.28976256  0.54714919  0.61655355     0.97900
O13         O  0.27235085  0.50962412  0.61883774    -0.82600
O14         O  0.30771731  0.48896671  0.66480582    -0.85300
C15         C  0.33610829  0.49145732  0.68010742     1.02400
O16         O  0.36587706  0.49504222  0.66533186    -0.78100
O17         O  0.40535268  0.56928111  0.63888503    -0.78200
C18         C  0.41402207  0.59693995  0.61996590     1.02400
Cr19       Cr  0.34730296  0.54467960  0.57843557     1.93700
Cr20       Cr  0.29527182  0.47318382  0.61970309     1.93200
Cr21       Cr  0.38686678  0.51522216  0.62168888     1.39100
O22         O  0.34282603  0.51041116  0.60670522    -1.23300
O23         O  0.16272987  0.66629818  0.55217971    -0.85600
O24         O  0.21242279  0.74389508  0.57065721    -0.82600
C25         C  0.18710220  0.75406508  0.56836940     0.97900
O26         O  0.16070450  0.74362918  0.58932487    -0.82600
O27         O  0.10631318  0.69631775  0.63428734    -0.85300
C28         C  0.08019433  0.66623066  0.61929951     1.02400
O29         O  0.08733104  0.64051035  0.60887465    -0.78000
O30         O  0.13054930  0.61170601  0.57885833    -0.78200
C31         C  0.14329536  0.62935207  0.55250304     1.02400
O32         O  0.20363976  0.64254270  0.59326029    -0.85600
O33         O  0.24331132  0.71601966  0.61745780    -0.82600
C34         C  0.25084038  0.74681557  0.63221376     0.97900
O35         O  0.22584863  0.75807767  0.63281207    -0.82600
O36         O  0.17065312  0.70726106  0.67394445    -0.85300
C37         C  0.14799125  0.67416048  0.68603981     1.02400
O38         O  0.12429625  0.64497857  0.66889841    -0.78100
O39         O  0.17191962  0.62197372  0.63800642    -0.78200
C40         C  0.19746531  0.62377643  0.61871347     1.02400
Cr41       Cr  0.20277899  0.69172107  0.58532346     1.93700
Cr42       Cr  0.16581572  0.72348754  0.63123879     1.93200
Cr43       Cr  0.13074952  0.63342678  0.62305397     1.39100
O44         O  0.16623169  0.68284112  0.61354540    -1.23300
O45         O  0.44230689  0.84671411  0.57583970    -0.85600
O46         O  0.49247508  0.82395079  0.55312195    -0.82600
C47         C  0.52280502  0.82138840  0.55014561     0.97900
O48         O  0.54346353  0.82553123  0.57449302    -0.82600
O49         O  0.57718440  0.90088355  0.60063526    -0.85300
C50         C  0.57891163  0.93075832  0.61325418     1.02400
O51         O  0.55206653  0.92704650  0.63170656    -0.78000
O52         O  0.49037492  0.90588772  0.58903689    -0.78200
C53         C  0.46117158  0.88353297  0.57164056     1.02400
O54         O  0.42377563  0.79551284  0.62879292    -0.85600
O55         O  0.46851199  0.76700764  0.60201336    -0.82600
C56         C  0.48840298  0.76286634  0.62316239     0.97900
O57         O  0.51630375  0.79256355  0.63693157    -0.82600
O58         O  0.55233842  0.86701007  0.66438445    -0.85300
C59         C  0.52866842  0.86899249  0.68407943     1.02400
O60         O  0.49916885  0.87039525  0.67463795    -0.78100
O61         O  0.43648566  0.85543348  0.63692232    -0.78200
C62         C  0.41358835  0.81876729  0.63978960     1.02400
Cr63       Cr  0.46004337  0.81120569  0.59187121     1.93700
Cr64       Cr  0.54403574  0.84689433  0.61878066     1.93200
Cr65       Cr  0.49505595  0.88656179  0.63155241     1.39100
O66         O  0.49984319  0.84796726  0.61420964    -1.23300
O67         O  0.17085045  0.52554916  0.45041124    -0.85600
O68         O  0.21485412  0.49145051  0.43635716    -0.82600
C69         C  0.19053209  0.45614727  0.44368486     0.97900
O70         O  0.16169657  0.43472440  0.42561973    -0.82600
O71         O  0.10373760  0.41629121  0.37894991    -0.85300
C72         C  0.07745375  0.42100422  0.39214445     1.02400
O73         O  0.08558923  0.45478249  0.40107878    -0.78000
O74         O  0.12835221  0.53188845  0.42150445    -0.78200
C75         C  0.14503041  0.53503948  0.44781390     1.02400
O76         O  0.20598765  0.57795069  0.39870466    -0.85600
O77         O  0.24283646  0.53775862  0.38004347    -0.82600
C78         C  0.24976455  0.51085402  0.37309579     0.97900
O79         O  0.22318406  0.47514177  0.37771680    -0.82600
O80         O  0.16601725  0.46431490  0.33534728    -0.85300
C81         C  0.14275530  0.47219863  0.32144417     1.02400
O82         O  0.11915109  0.47875221  0.33732371    -0.78100
O83         O  0.16334255  0.55542061  0.35984849    -0.78200
C84         C  0.19136076  0.58400089  0.37452438     1.02400
Cr85       Cr  0.20542143  0.53030563  0.41448931     1.93700
Cr86       Cr  0.16348461  0.45081464  0.38039601     1.93200
Cr87       Cr  0.12690709  0.50398887  0.38079923     1.39100
O88         O  0.16503501  0.49509117  0.39181771    -1.23300
O89         O  0.33982511  0.84313921  0.46462194    -0.85600
O90         O  0.26157058  0.78807583  0.44881738    -0.82600
C91         C  0.24714291  0.80976744  0.45130294     0.97900
O92         O  0.25644684  0.83638632  0.43111579    -0.82600
O93         O  0.30270173  0.89330831  0.38595957    -0.85300
C94         C  0.33636529  0.92153875  0.39502012     1.02400
O95         O  0.36371114  0.91558876  0.40220968    -0.78000
O96         O  0.39273854  0.87717061  0.43510418    -0.78200
C97         C  0.37614582  0.86890472  0.46236465     1.02400
O98         O  0.36494061  0.80292421  0.42455426    -0.85600
O99         O  0.28971072  0.75895306  0.40076885    -0.82600
C100        C  0.25834152  0.74886461  0.38576043     0.97900
O101        O  0.24510531  0.77238868  0.38482233    -0.82600
O102        O  0.29159954  0.83051017  0.34296965    -0.85300
C103        C  0.32428123  0.85103160  0.32907992     1.02400
O104        O  0.35551877  0.87169164  0.34511655    -0.78100
O105        O  0.37985470  0.82800831  0.37778947    -0.78200
C106        C  0.38110115  0.80578389  0.39821675     1.02400
Cr107      Cr  0.31426982  0.80114941  0.43235499     1.93700
Cr108      Cr  0.27728349  0.83344981  0.38773617     1.93200
Cr109      Cr  0.36896273  0.87023212  0.39095797     1.39100
O110        O  0.32008413  0.83553507  0.40345025    -1.23300
O111        O  0.47456185  0.63847846  0.44556843    -0.85600
O112        O  0.49137710  0.71359793  0.43545364    -0.82600
C113        C  0.52768235  0.73638425  0.44084220     0.97900
O114        O  0.55291525  0.73382550  0.42387482    -0.82600
O115        O  0.58084282  0.70104569  0.37770739    -0.85300
C116        C  0.57923811  0.67013996  0.38787972     1.02400
O117        O  0.54660793  0.63929284  0.39312045    -0.78000
O118        O  0.47089186  0.59308075  0.41286484    -0.78200
C119        C  0.47153742  0.60555535  0.44089422     1.02400
O120        O  0.41831953  0.61066708  0.39586746    -0.85600
O121        O  0.44557668  0.68736109  0.37944403    -0.82600
C122        C  0.46652572  0.72412509  0.37629270     0.97900
O123        O  0.50403393  0.74084695  0.37721109    -0.82600
O124        O  0.52889102  0.70573281  0.33224669    -0.85300
C125        C  0.52732098  0.67742552  0.31692095     1.02400
O126        O  0.52216780  0.64733111  0.33139005    -0.78100
O127        O  0.44446373  0.60558157  0.35175526    -0.78200
C128        C  0.41431707  0.59629966  0.36843028     1.02400
Cr129      Cr  0.46040647  0.66295873  0.41225864     1.93700
Cr130      Cr  0.53878996  0.71638777  0.37829805     1.93200
Cr131      Cr  0.49633342  0.62481497  0.37326761     1.39100
O132        O  0.49915098  0.66824990  0.38803780    -1.23300
O133        O  0.58433167  0.47448472  0.41474073    -0.85600
O134        O  0.62648698  0.55307544  0.39625614    -0.82600
C135        C  0.65528607  0.58664951  0.38927859     0.97900
O136        O  0.68648971  0.59013514  0.37744518    -0.82600
O137        O  0.72118121  0.56940416  0.42632579    -0.85300
C138        C  0.72462422  0.54706305  0.44569710     1.02400
O139        O  0.71021646  0.51103414  0.43877988    -0.78000
O140        O  0.63094475  0.48055441  0.44633821    -0.78200
C141        C  0.59557711  0.47063122  0.44177105     1.02400
O142        O  0.59969411  0.45168054  0.35407753    -0.85600
O143        O  0.63838690  0.52907862  0.33388440    -0.82600
C144        C  0.66886897  0.53472308  0.31892188     0.97900
O145        O  0.69896871  0.54070241  0.33414671    -0.82600
O146        O  0.73982390  0.52741107  0.37978359    -0.85300
C147        C  0.72906126  0.49163198  0.37548520     1.02400
O148        O  0.69386943  0.46506945  0.38126652    -0.78100
O149        O  0.61369279  0.42733398  0.39466968    -0.78200
C150        C  0.59451354  0.42226498  0.36950057     1.02400
Cr151      Cr  0.61620795  0.50318095  0.37588036     1.93700
Cr152      Cr  0.70779393  0.55359007  0.38021987     1.93200
Cr153      Cr  0.66227934  0.47393271  0.41319444     1.39100
O154        O  0.66193764  0.51024837  0.38970529    -1.23300
O155        O  0.51975145  0.39408553  0.57531655    -0.85600
O156        O  0.44619381  0.36465416  0.60095258    -0.82600
C157        C  0.41187645  0.33891331  0.60925988     0.97900
O158        O  0.40571312  0.30738487  0.62208032    -0.82600
O159        O  0.42323708  0.26333167  0.57865241    -0.85300
C160        C  0.44342684  0.25286270  0.56240529     1.02400
O161        O  0.47838397  0.26443564  0.57062652    -0.78000
O162        O  0.50807274  0.34004692  0.55069527    -0.78200
C163        C  0.51800591  0.37565705  0.54975532     1.02400
O164        O  0.54836422  0.39024455  0.63792507    -0.85600
O165        O  0.47456594  0.36114897  0.66379933    -0.82600
C166        C  0.46502151  0.33124090  0.68081615     0.97900
O167        O  0.45358636  0.29810179  0.66805874    -0.82600
O168        O  0.46581251  0.24947718  0.62953764    -0.85300
C169        C  0.50220329  0.26105583  0.63412375     1.02400
O170        O  0.52884545  0.29439228  0.62445426    -0.78100
O171        O  0.56728146  0.36878618  0.59778866    -0.78200
C172        C  0.57560824  0.39116957  0.62156558     1.02400
Cr173      Cr  0.49601629  0.37356099  0.61891332     1.93700
Cr174      Cr  0.44012665  0.28271826  0.62339743     1.93200
Cr175      Cr  0.51806439  0.31752655  0.58778496     1.39100
O176        O  0.48459723  0.32487535  0.61036502    -1.23300
O177        O  0.51069133  0.13026594  0.41940253    -0.85600
O178        O  0.45260734  0.09634903  0.37302415    -0.82600
C179        C  0.41994494  0.08920180  0.38454030     0.97900
O180        O  0.41464941  0.11714187  0.39258795    -0.82600
O181        O  0.43789583  0.19176943  0.41777639    -0.85300
C182        C  0.45407331  0.19505513  0.44450227     1.02400
O183        O  0.48797745  0.19914454  0.44614085    -0.78000
O184        O  0.55193342  0.19231225  0.42882504    -0.78200
C185        C  0.53555975  0.15709696  0.43745636     1.02400
O186        O  0.56535856  0.18416746  0.37149608    -0.85600
O187        O  0.50413117  0.15458988  0.32944602    -0.82600
C188        C  0.47449757  0.15222769  0.31612087     0.97900
O189        O  0.44696167  0.15195320  0.33194943    -0.82600
O190        O  0.47394235  0.22673787  0.35588479    -0.85300
C191        C  0.49606484  0.25785527  0.37152244     1.02400
O192        O  0.50810735  0.25520393  0.39821521    -0.78100
O193        O  0.56471314  0.23886822  0.37517415    -0.78200
C194        C  0.58298311  0.22129380  0.36839791     1.02400
Cr195      Cr  0.50694794  0.14381511  0.37435634     1.93700
Cr196      Cr  0.44673266  0.17237167  0.37548083     1.93200
Cr197      Cr  0.52557158  0.21827005  0.41022340     1.39100
O198        O  0.49244736  0.17764670  0.38666391    -1.23300
O199        O  0.88000816  0.48079843  0.58224633    -0.85600
O200        O  0.91165891  0.55607470  0.60368798    -0.82600
C201        C  0.91568862  0.58797747  0.61364916     0.97900
O202        O  0.88626274  0.58903680  0.62511588    -0.82600
O203        O  0.82708852  0.56715194  0.57787070    -0.85300
C204        C  0.80147556  0.54475401  0.55765377     1.02400
O205        O  0.78443696  0.50782681  0.56061312    -0.78000
O206        O  0.84129033  0.48860766  0.55039853    -0.78200
C207        C  0.87049753  0.48442110  0.55449143     1.02400
O208        O  0.83863904  0.45385101  0.64253051    -0.85600
O209        O  0.87772804  0.52951306  0.66498262    -0.82600
C210        C  0.85247968  0.53250958  0.68149568     0.97900
O211        O  0.82495112  0.53386031  0.66774665    -0.82600
O212        O  0.76696034  0.51569402  0.62279462    -0.85300
C213        C  0.74377451  0.47848222  0.62295910     1.02400
O214        O  0.75553706  0.45599699  0.61308068    -0.78100
O215        O  0.80585974  0.42904385  0.59851008    -0.78200
C216        C  0.81620686  0.42445564  0.62563856     1.02400
Cr217      Cr  0.87371148  0.50536154  0.62236940     1.93700
Cr218      Cr  0.82703995  0.54855828  0.62228605     1.93200
Cr219      Cr  0.79947884  0.47314387  0.58265294     1.39100
O220        O  0.83334467  0.50923990  0.60918564    -1.23300
O221        O  0.89904157  0.41471323  0.42147083    -0.85600
O222        O  0.91431163  0.37618215  0.37360732    -0.82600
C223        C  0.91362224  0.34706178  0.38611081     0.97900
O224        O  0.88135405  0.31768147  0.39560367    -0.82600
O225        O  0.80219265  0.27703048  0.41847638    -0.85300
C226        C  0.80064340  0.28942953  0.44614978     1.02400
O227        O  0.81158900  0.32520428  0.45063868    -0.78000
O228        O  0.84179443  0.40443661  0.43846396    -0.78200
C229        C  0.87870149  0.42039774  0.44167948     1.02400
O230        O  0.85133869  0.42850979  0.37821532    -0.85600
O231        O  0.86118002  0.38378170  0.33324144    -0.82600
C232        C  0.85901919  0.35464852  0.31900756     0.97900
O233        O  0.85404798  0.32541074  0.33483961    -0.82600
O234        O  0.77748602  0.29220627  0.35771553    -0.85300
C235        C  0.75007540  0.29159439  0.37390716     1.02400
O236        O  0.75701217  0.30524560  0.40162547    -0.78100
O237        O  0.78992067  0.38157752  0.38497559    -0.78200
C238        C  0.81478337  0.41546271  0.37537038     1.02400
Cr239      Cr  0.87839048  0.39724989  0.37771885     1.93700
Cr240      Cr  0.82938061  0.30631992  0.37785258     1.93200
Cr241      Cr  0.80295103  0.35427359  0.41704337     1.39100
O242        O  0.83742064  0.35252964  0.39131233    -1.23300
O243        O  0.59053086  0.13827352  0.58015781    -0.85600
O244        O  0.62981537  0.10048487  0.59565951    -0.82600
C245        C  0.65588568  0.09383899  0.60500160     0.97900
O246        O  0.68508197  0.11998684  0.62039077    -0.82600
O247        O  0.72273006  0.18293344  0.57748791    -0.85300
C248        C  0.72875977  0.21275320  0.56211981     1.02400
O249        O  0.71671964  0.23479653  0.57295553    -0.78000
O250        O  0.63958080  0.19064094  0.55742098    -0.78200
C251        C  0.60521539  0.16109473  0.55661472     1.02400
O252        O  0.59356741  0.16130450  0.64562321    -0.85600
O253        O  0.63250016  0.12340966  0.66275193    -0.82600
C254        C  0.66172053  0.14667901  0.68020371     0.97900
O255        O  0.69286336  0.17424406  0.66781638    -0.82600
O256        O  0.73962976  0.23707579  0.62962904    -0.85300
C257        C  0.72853268  0.26072345  0.63803273     1.02400
O258        O  0.69304589  0.25079970  0.63429117    -0.78100
O259        O  0.61542534  0.21170105  0.61402128    -0.78200
C260        C  0.59115293  0.18938861  0.63474160     1.02400
Cr261      Cr  0.61547573  0.13401532  0.62045841     1.93700
Cr262      Cr  0.70669704  0.17824595  0.62297013     1.93200
Cr263      Cr  0.66599449  0.21892582  0.59628483     1.39100
O264        O  0.66221959  0.17677627  0.61322596    -1.23300
O265        O  0.63601081  0.48052201  0.04941593    -0.85600
O266        O  0.71086592  0.49597539  0.06022983    -0.82600
C267        C  0.73278751  0.53242815  0.05561577     0.97900
O268        O  0.72957533  0.55648201  0.07350752    -0.82600
O269        O  0.69666881  0.58280910  0.12034027    -0.85300
C270        C  0.66588593  0.58205959  0.11061413     1.02400
O271        O  0.63460634  0.54988926  0.10474223    -0.78000
O272        O  0.58907857  0.47547941  0.08091109    -0.78200
C273        C  0.60281420  0.47744837  0.05304692     1.02400
O274        O  0.60595968  0.42126115  0.09722503    -0.85600
O275        O  0.68292787  0.44711847  0.11382537    -0.82600
C276        C  0.71880105  0.46842236  0.12105645     0.97900
O277        O  0.73552771  0.50581281  0.11983744    -0.82600
O278        O  0.70062331  0.52935576  0.16442307    -0.85300
C279        C  0.67168369  0.52618239  0.17985853     1.02400
O280        O  0.64148849  0.52125661  0.16525727    -0.78100
O281        O  0.60080151  0.44569460  0.14209355    -0.78200
C282        C  0.59267053  0.41610685  0.12517943     1.02400
Cr283      Cr  0.65917934  0.46414152  0.08211764     1.93700
Cr284      Cr  0.71167651  0.54075935  0.11865932     1.93200
Cr285      Cr  0.61983260  0.49826847  0.12219038     1.39100
O286        O  0.66376807  0.50165289  0.10770191    -1.23300
O287        O  0.56164188  0.40146726  0.93269942    -0.85600
O288        O  0.50250139  0.32850615  0.95069046    -0.82600
C289        C  0.47660695  0.29252565  0.95074582     0.97900
O290        O  0.45964304  0.27576674  0.92493617    -0.82600
O291        O  0.42997790  0.31948745  0.89740160    -0.85300
C292        C  0.43091884  0.34869657  0.88484391     1.02400
O293        O  0.46030191  0.37304235  0.86864784    -0.78000
O294        O  0.51693281  0.41277912  0.91431828    -0.78200
C295        C  0.54242657  0.41885955  0.93490049     1.02400
O296        O  0.58387414  0.36551095  0.88403098    -0.85600
O297        O  0.53131420  0.29204164  0.90726098    -0.82600
C298        C  0.51719791  0.27079502  0.88267475     0.97900
O299        O  0.49441931  0.27528848  0.86471817    -0.82600
O300        O  0.46007376  0.31315475  0.83599328    -0.85300
C301        C  0.48597269  0.33914867  0.81774915     1.02400
O302        O  0.51631492  0.36903408  0.82892294    -0.78100
O303        O  0.57632793  0.41473332  0.87125276    -0.78200
C304        C  0.59734185  0.39899185  0.87194500     1.02400
Cr305      Cr  0.54225682  0.34666607  0.91669482     1.93700
Cr306      Cr  0.46395590  0.29935530  0.88136110     1.93200
Cr307      Cr  0.51692379  0.38917472  0.87212105     1.39100
O308        O  0.50782651  0.34489389  0.88957081    -1.23300
O309        O  0.62461642  0.17339232  0.93805099    -0.85600
O310        O  0.70466106  0.20918441  0.94550685    -0.82600
C311        C  0.73765715  0.21165476  0.94213041     0.97900
O312        O  0.74678662  0.20152481  0.91633616    -0.82600
O313        O  0.69972758  0.12316703  0.89638900    -0.85300
C314        C  0.67048503  0.09173554  0.88604185     1.02400
O315        O  0.64299261  0.09276253  0.87208513    -0.78000
O316        O  0.61121184  0.11414207  0.92303748    -0.78200
C317        C  0.60968041  0.13700595  0.94353212     1.02400
O318        O  0.63835243  0.21792583  0.88004853    -0.85600
O319        O  0.71692674  0.25474550  0.88958882    -0.82600
C320        C  0.73768453  0.25683975  0.86593597     0.97900
O321        O  0.73789260  0.22693133  0.85567304    -0.82600
O322        O  0.69352917  0.15075743  0.83369360    -0.85300
C323        C  0.66481204  0.14848708  0.81831903     1.02400
O324        O  0.63509220  0.14552406  0.83272047    -0.78100
O325        O  0.59171008  0.15646690  0.88042816    -0.78200
C326        C  0.60270735  0.19208358  0.87621612     1.02400
Cr327      Cr  0.67109377  0.21054472  0.91143126     1.93700
Cr328      Cr  0.71557442  0.17499614  0.87669094     1.93200
Cr329      Cr  0.62423187  0.13068643  0.87792966     1.39100
O330        O  0.67082928  0.17242089  0.88889235    -1.23300
O331        O  0.85926983  0.47564620  0.94470729    -0.85600
O332        O  0.80173105  0.49541875  0.94008402    -0.82600
C333        C  0.82083959  0.53113579  0.94829252     0.97900
O334        O  0.84774606  0.55597675  0.93025413    -0.82600
O335        O  0.90762426  0.58423055  0.88372371    -0.85300
C336        C  0.93634682  0.58036968  0.89204804     1.02400
O337        O  0.93231561  0.54682783  0.89384973    -0.78000
O338        O  0.89773061  0.47013062  0.90971923    -0.78200
C339        C  0.88769285  0.47067631  0.93829412     1.02400
O340        O  0.82379909  0.42133039  0.89336369    -0.85600
O341        O  0.77506081  0.45114298  0.88314384    -0.82600
C342        C  0.76456570  0.47567451  0.87739267     0.97900
O343        O  0.78874341  0.51232367  0.88153217    -0.82600
O344        O  0.84661931  0.53722775  0.83679640    -0.85300
C345        C  0.87073868  0.53329506  0.81962777     1.02400
O346        O  0.89559513  0.52684171  0.83248642    -0.78100
O347        O  0.85482134  0.44879379  0.84949284    -0.78200
C348        C  0.83193864  0.41829147  0.86490369     1.02400
Cr349      Cr  0.81784899  0.46394441  0.91348653     1.93700
Cr350      Cr  0.84840618  0.54446425  0.88354689     1.93200
Cr351      Cr  0.89197830  0.49853776  0.87259271     1.39100
O352        O  0.85293315  0.50269981  0.88971882    -1.23300
O353        O  0.56968812  0.17768200  0.07077601    -0.85600
O354        O  0.51507343  0.19627078  0.05367767    -0.82600
C355        C  0.48736580  0.20305871  0.05396282     0.97900
O356        O  0.46571040  0.19503514  0.07854866    -0.82600
O357        O  0.43298855  0.11556192  0.09936150    -0.85300
C358        C  0.43286418  0.08586302  0.11033563     1.02400
O359        O  0.46212071  0.09003390  0.12559629    -0.78000
O360        O  0.52380208  0.11717402  0.08196704    -0.78200
C361        C  0.55190676  0.14121990  0.06450555     1.02400
O362        O  0.58544082  0.22571319  0.12707033    -0.85600
O363        O  0.53713066  0.25052230  0.10573322    -0.82600
C364        C  0.51825985  0.25228689  0.12928073     0.97900
O365        O  0.49222830  0.22115426  0.14255653    -0.82600
O366        O  0.45806498  0.14472286  0.16285288    -0.85300
C367        C  0.48306221  0.14390094  0.18102710     1.02400
O368        O  0.51398591  0.14604519  0.17023321    -0.78100
O369        O  0.57790818  0.16752603  0.13098750    -0.78200
C370        C  0.59869608  0.20444038  0.13544492     1.02400
Cr371      Cr  0.54888995  0.20951883  0.09099503     1.93700
Cr372      Cr  0.46551861  0.16886144  0.11995598     1.93200
Cr373      Cr  0.51875907  0.13297379  0.12608621     1.39100
O374        O  0.51074027  0.17038124  0.11237862    -1.23300
O375        O  0.85536067  0.37212751  0.05051314    -0.85600
O376        O  0.79709090  0.29502567  0.06536434    -0.82600
C377        C  0.81931103  0.28302588  0.05616216     0.97900
O378        O  0.84732157  0.28857781  0.07392552    -0.82600
O379        O  0.90673234  0.32655706  0.11873335    -0.85300
C380        C  0.93503800  0.35967607  0.10976343     1.02400
O381        O  0.93114446  0.38917016  0.10739998    -0.78000
O382        O  0.89406994  0.42277444  0.08129826    -0.78200
C383        C  0.88372530  0.40726571  0.05380036     1.02400
O384        O  0.82307983  0.39952212  0.09533185    -0.85600
O385        O  0.77502629  0.32286789  0.11748134    -0.82600
C386        C  0.76485294  0.28886066  0.12726695     0.97900
O387        O  0.78827725  0.27578312  0.12420442    -0.82600
O388        O  0.84806809  0.31574161  0.16588377    -0.85300
C389        C  0.86949029  0.34717778  0.18118781     1.02400
O390        O  0.89147208  0.37908070  0.16680935    -0.78100
O391        O  0.84838409  0.40879515  0.14181311    -0.78200
C392        C  0.82462369  0.41077889  0.12336956     1.02400
Cr393      Cr  0.81521915  0.34754036  0.08398536     1.93700
Cr394      Cr  0.84804614  0.30487773  0.11987077     1.93200
Cr395      Cr  0.88846855  0.39655666  0.12343122     1.39100
O396        O  0.85119602  0.34959017  0.10943376    -1.23300
O397        O  0.42104994  0.54097243  0.91553184    -0.85600
O398        O  0.38295086  0.46679693  0.89093163    -0.82600
C399        C  0.35376841  0.43273188  0.88595291     0.97900
O400        O  0.32099484  0.42738879  0.87606904    -0.82600
O401        O  0.28070451  0.44110682  0.92425802    -0.85300
C402        C  0.27581790  0.46034106  0.94610378     1.02400
O403        O  0.29352105  0.49734729  0.94458995    -0.78000
O404        O  0.37375350  0.52364696  0.95060057    -0.78200
C405        C  0.40938167  0.53488449  0.94407294     1.02400
O406        O  0.39987756  0.56793338  0.85927772    -0.85600
O407        O  0.36949280  0.49348108  0.83276159    -0.82600
C408        C  0.33808182  0.48512932  0.81867517     0.97900
O409        O  0.30783693  0.47795462  0.83454251    -0.82600
O410        O  0.26689989  0.49072567  0.88148009    -0.85300
C411        C  0.27902316  0.52736293  0.88317826     1.02400
O412        O  0.31260050  0.55160511  0.89437461    -0.78100
O413        O  0.39148830  0.58473726  0.90677187    -0.78200
C414        C  0.40350691  0.59412180  0.87862172     1.02400
Cr415      Cr  0.38946630  0.51633517  0.87580978     1.93700
Cr416      Cr  0.29781929  0.46257115  0.88003597     1.93200
Cr417      Cr  0.34278390  0.53661483  0.92185095     1.39100
O418        O  0.34303129  0.50471966  0.89241895    -1.23300
O419        O  0.15768158  0.54584378  0.08623913    -0.85600
O420        O  0.11142682  0.46794547  0.10204892    -0.82600
C421        C  0.10011232  0.43351443  0.11086515     0.97900
O422        O  0.12380650  0.42655590  0.12548912    -0.82600
O423        O  0.18282331  0.44035693  0.08200401    -0.85300
C424        C  0.21092773  0.46010345  0.06297841     1.02400
O425        O  0.23640383  0.49580175  0.06912839    -0.78000
O426        O  0.19668309  0.53414040  0.05678371    -0.78200
C427        C  0.17351957  0.54697646  0.05970301     1.02400
O428        O  0.18893325  0.56244052  0.14944079    -0.85600
O429        O  0.13799563  0.48590916  0.16707853    -0.82600
C430        C  0.16009937  0.47930691  0.18427037     0.97900
O431        O  0.18480686  0.47212848  0.17163916    -0.82600
O432        O  0.24299835  0.47961154  0.13051373    -0.85300
C433        C  0.27065398  0.51504802  0.13486305     1.02400
O434        O  0.26581658  0.54268237  0.12677279    -0.78100
O435        O  0.23198705  0.58511775  0.11051129    -0.78200
C436        C  0.21800778  0.59076802  0.13581945     1.02400
Cr437      Cr  0.15163531  0.51430857  0.12536039     1.93700
Cr438      Cr  0.18382341  0.45792693  0.12653985     1.93200
Cr439      Cr  0.22971059  0.53678922  0.09251596     1.39100
O440        O  0.18833263  0.50299714  0.11476144    -1.23300
O441        O  0.15905973  0.61737259  0.92588120    -0.85600
O442        O  0.11201145  0.64665897  0.90738730    -0.82600
C443        C  0.10185282  0.67025009  0.89812609     0.97900
O444        O  0.12579540  0.70002607  0.88189867    -0.82600
O445        O  0.18930727  0.74645531  0.92250383    -0.85300
C446        C  0.22017989  0.75701081  0.93846253     1.02400
O447        O  0.24510477  0.74833142  0.92867966    -0.78000
O448        O  0.20261936  0.67250783  0.94887662    -0.78200
C449        C  0.17869108  0.63613921  0.95041561     1.02400
O450        O  0.18431652  0.62280821  0.86008955    -0.85600
O451        O  0.13504920  0.64844499  0.84157748    -0.82600
C452        C  0.15567762  0.67664425  0.82274824     0.97900
O453        O  0.18165237  0.71012379  0.83316695    -0.82600
O454        O  0.24500683  0.76355350  0.86937555    -0.85300
C455        C  0.27054369  0.75375194  0.86327974     1.02400
O456        O  0.26414620  0.72076729  0.87207656    -0.78100
O457        O  0.23000898  0.64646210  0.89650061    -0.78200
C458        C  0.21270110  0.62310764  0.87357055     1.02400
Cr459      Cr  0.15037636  0.63765311  0.88424908     1.93700
Cr460      Cr  0.18560017  0.72733401  0.87772900     1.93200
Cr461      Cr  0.23237796  0.69634948  0.90996218     1.39100
O462        O  0.18921464  0.68687630  0.89040630    -1.23300
O463        O  0.48671653  0.89826690  0.92123379    -0.85600
O464        O  0.56379859  0.92751465  0.90422425    -0.82600
C465        C  0.59548359  0.93053422  0.89470216     0.97900
O466        O  0.59508149  0.90151693  0.88090637    -0.82600
O467        O  0.56479059  0.83869512  0.92550896    -0.85300
C468        C  0.53929742  0.81082420  0.94254697     1.02400
O469        O  0.50289219  0.79482778  0.93606458    -0.78000
O470        O  0.48526782  0.85173215  0.94992183    -0.78200
C471        C  0.48269913  0.88200348  0.94791806     1.02400
O472        O  0.46410001  0.86675034  0.85684835    -0.85600
O473        O  0.54177497  0.90107838  0.83912381    -0.82600
C474        C  0.54170904  0.87451722  0.82192109     0.97900
O475        O  0.54054710  0.84541365  0.83499369    -0.82600
O476        O  0.51565772  0.78314506  0.87681352    -0.85300
C477        C  0.47823452  0.76293465  0.87357518     1.02400
O478        O  0.45885536  0.77957195  0.87758583    -0.78100
O479        O  0.43279966  0.82822647  0.89666914    -0.78200
C480        C  0.43219171  0.84283803  0.87035744     1.02400
Cr481      Cr  0.51424109  0.89535324  0.88117865     1.93700
Cr482      Cr  0.55159088  0.84318403  0.88036395     1.93200
Cr483      Cr  0.47289532  0.81609129  0.91348046     1.39100
O484        O  0.51332182  0.85192692  0.89194706    -1.23300
O485        O  0.41987814  0.88417632  0.09145068    -0.85600
O486        O  0.38269234  0.91946220  0.11724502    -0.82600
C487        C  0.35261817  0.92283121  0.11817126     0.97900
O488        O  0.31891198  0.89443642  0.12658900    -0.82600
O489        O  0.28147948  0.83514183  0.08233558    -0.85300
C490        C  0.27679282  0.80899251  0.06255923     1.02400
O491        O  0.29258476  0.78912720  0.06768276    -0.78000
O492        O  0.37158570  0.84897525  0.05785572    -0.78200
C493        C  0.40734227  0.87496966  0.06314058     1.02400
O494        O  0.40219713  0.83702133  0.14953203    -0.85600
O495        O  0.37017890  0.87877690  0.17620155    -0.82600
C496        C  0.33740142  0.85775249  0.19003267     0.97900
O497        O  0.30671768  0.83584986  0.17404178    -0.82600
O498        O  0.26932285  0.77543938  0.13134148    -0.85300
C499        C  0.28454392  0.75371530  0.13237454     1.02400
O500        O  0.31768989  0.76486587  0.11962818    -0.78100
O501        O  0.39459184  0.81269715  0.10211338    -0.78200
C502        C  0.40658267  0.81521354  0.12996717     1.02400
Cr503      Cr  0.38991938  0.87694796  0.13258562     1.93700
Cr504      Cr  0.29767294  0.83563613  0.12767395     1.93200
Cr505      Cr  0.34385413  0.80671198  0.08898126     1.39100
O506        O  0.34356438  0.84016288  0.11677813    -1.23300
O507        O  0.48426222  0.59033831  0.08519394    -0.85600
O508        O  0.56167413  0.63908467  0.09981945    -0.82600
C509        C  0.59431800  0.66932247  0.10622677     0.97900
O510        O  0.59572498  0.69980094  0.11811246    -0.82600
O511        O  0.56576659  0.72987955  0.07226532    -0.85300
C512        C  0.54025539  0.73065446  0.05475537     1.02400
O513        O  0.50395918  0.71022332  0.06185420    -0.78000
O514        O  0.48530230  0.63411481  0.05332854    -0.78200
C515        C  0.48229223  0.60128793  0.05745024     1.02400
O516        O  0.46408899  0.60632675  0.14864614    -0.85600
O517        O  0.54230770  0.64995250  0.16378997    -0.82600
C518        C  0.54301498  0.67801778  0.17903628     0.97900
O519        O  0.54354503  0.70573362  0.16418116    -0.82600
O520        O  0.51900892  0.74035645  0.12075321    -0.85300
C521        C  0.48166147  0.72339240  0.12447305     1.02400
O522        O  0.46089254  0.68689513  0.12067181    -0.78100
O523        O  0.43294632  0.60961937  0.10747883    -0.78200
C524        C  0.43225415  0.59690732  0.13500692     1.02400
Cr525      Cr  0.51324978  0.62470704  0.12333007     1.93700
Cr526      Cr  0.55351199  0.71539976  0.11823687     1.93200
Cr527      Cr  0.47369699  0.66068219  0.08741295     1.39100
O528        O  0.51391817  0.66706777  0.10946111    -1.23300
C529        C  0.40416290  0.75329985  0.12317801    -0.06000
C530        C  0.42399370  0.79074415  0.13723051    -0.00100
C531        C  0.46210201  0.80519893  0.15002428    -0.08600
C532        C  0.47990276  0.78199868  0.14656444    -0.06000
C533        C  0.46085970  0.74555554  0.13014522    -0.00100
C534        C  0.42216951  0.73126656  0.11780220    -0.08500
C535        C  0.40051236  0.69483434  0.09639783     0.61800
H536        H  0.37482791  0.74265784  0.11392011     0.12500
H537        H  0.50920927  0.79264665  0.15587293     0.12500
C538        C  0.48385319  0.84501542  0.16644964     0.62100
F539        F  0.36714822  0.69149360  0.08270095    -0.23100
F540        F  0.38830427  0.66102569  0.11363101    -0.20400
F541        F  0.42507474  0.69699515  0.07187703    -0.20100
F542        F  0.46204324  0.84495032  0.19234617    -0.20200
F543        F  0.48905653  0.87414255  0.14580396    -0.20500
F544        F  0.52068876  0.85394229  0.17700491    -0.23200
C545        C  0.55627387  0.81334424  0.99973274    -0.06000
C546        C  0.55059450  0.79500845  0.96993364    -0.00100
C547        C  0.54842210  0.75810599  0.96808149    -0.08600
C548        C  0.54899234  0.73943108  0.99628129    -0.06000
C549        C  0.55140597  0.75633233  0.02624635    -0.00100
C550        C  0.55648339  0.79448070  0.02796661    -0.08500
C551        C  0.55868688  0.81369647  0.05975944     0.61800
H552        H  0.55739877  0.84123581  0.00099448     0.12500
H553        H  0.54473223  0.71014669  0.99523466     0.12500
C554        C  0.54327770  0.73753675  0.93644442     0.62100
F555        F  0.56966418  0.85276424  0.05657778    -0.23100
F556        F  0.58623900  0.81230839  0.07883853    -0.20400
F557        F  0.52204575  0.79392603  0.07429597    -0.20100
F558        F  0.57202607  0.76290548  0.91540951    -0.20200
F559        F  0.50638618  0.72585515  0.92450020    -0.20500
F560        F  0.54638589  0.70447985  0.93912880    -0.23200
C561        C  0.41935669  0.89602053  0.00765365    -0.06000
C562        C  0.43474585  0.89101445  0.03574425    -0.00100
C563        C  0.47243026  0.89447065  0.03508224    -0.08600
C564        C  0.48972647  0.89582223  0.00541144    -0.06000
C565        C  0.47128364  0.89522606  0.97698722    -0.00100
C566        C  0.43732595  0.89863928  0.97820386    -0.08500
C567        C  0.41786806  0.90126345  0.94856304     0.61800
H568        H  0.39129529  0.89477394  0.00873094     0.12500
H569        H  0.51640314  0.89440575  0.00406139     0.12500
C570        C  0.49321784  0.89402593  0.06498639     0.62100
F571        F  0.38658430  0.90659104  0.95542194    -0.23100
F572        F  0.40364776  0.86679606  0.93125478    -0.20400
F573        F  0.44502195  0.93300791  0.93083044    -0.20100
F574        F  0.47148000  0.85798012  0.07957080    -0.20200
F575        F  0.49768846  0.92363310  0.08542224    -0.20500
F576        F  0.53050174  0.90028833  0.05861480    -0.23200
C577        C  0.20514924  0.75405712  0.99544555    -0.06000
C578        C  0.22718390  0.77703442  0.96967371    -0.00100
C579        C  0.26077472  0.81470760  0.97535007    -0.08600
C580        C  0.27387663  0.82649028  0.00681730    -0.06000
C581        C  0.25446768  0.80139441  0.03246098    -0.00100
C582        C  0.21865826  0.76530277  0.02679973    -0.08500
C583        C  0.19607964  0.73774395  0.05367976     0.61800
H584        H  0.17949012  0.72528488  0.99066022     0.12500
H585        H  0.30141773  0.85381991  0.01121108     0.12500
C586        C  0.28431362  0.84105520  0.94805226     0.62100
F587        F  0.15995590  0.70642466  0.04389829    -0.23100
F588        F  0.18912992  0.75829424  0.07702948    -0.20400
F589        F  0.21797143  0.72272608  0.06587291    -0.20100
F590        F  0.25906153  0.84067831  0.92534237    -0.20200
F591        F  0.30748849  0.82781641  0.93454339    -0.20500
F592        F  0.30848278  0.87957989  0.95817111    -0.23200
C593        C  0.37567636  0.79090635  0.84177225    -0.06000
C594        C  0.39343142  0.82859777  0.85516615    -0.00100
C595        C  0.37021778  0.84628444  0.85962114    -0.08600
C596        C  0.32863806  0.82211715  0.85805614    -0.06000
C597        C  0.31058761  0.78193074  0.85029794    -0.00100
C598        C  0.33469716  0.76808717  0.83756653    -0.08500
C599        C  0.31803565  0.72784892  0.82260786     0.61800
H600        H  0.39375068  0.77824496  0.83623962     0.12500
H601        H  0.31043191  0.83404628  0.86532271     0.12500
C602        C  0.38747242  0.88990162  0.86525403     0.62100
F603        F  0.34117613  0.72971766  0.79702406    -0.23100
F604        F  0.28014069  0.71364304  0.81156671    -0.20400
F605        F  0.31783117  0.70245833  0.84485214    -0.20100
F606        F  0.37818171  0.90523533  0.83979814    -0.20200
F607        F  0.42811344  0.91020061  0.86826407    -0.20500
F608        F  0.37104236  0.89590336  0.89221612    -0.23200
C609        C  0.20545575  0.60604257  0.02760125    -0.06000
C610        C  0.17126804  0.56984153  0.03339350    -0.00100
C611        C  0.13810627  0.55643493  0.01353575    -0.08600
C612        C  0.14130499  0.57913678  0.98686971    -0.06000
C613        C  0.17613861  0.61525919  0.98038727    -0.00100
C614        C  0.20870168  0.62948904  0.00179303    -0.08500
C615        C  0.24752355  0.66846624  0.99754686     0.61800
H616        H  0.23007300  0.61564539  0.04367892     0.12500
H617        H  0.11653176  0.56879840  0.97087745     0.12500
C618        C  0.09989112  0.51842464  0.02058765     0.62100
F619        F  0.27521911  0.67433810  0.02024446    -0.23100
F620        F  0.24096623  0.69946309  0.00031034    -0.20400
F621        F  0.26385587  0.66922206  0.96820207    -0.20100
F622        F  0.08514644  0.52177182  0.04957749    -0.20200
F623        F  0.10673417  0.48760895  0.02168192    -0.20500
F624        F  0.07150639  0.50963628  0.99774538    -0.23200
C625        C  0.28914213  0.69810837  0.15189017    -0.06000
C626        C  0.26448174  0.71335926  0.14623497    -0.00100
C627        C  0.22302951  0.68750285  0.14900349    -0.08600
C628        C  0.20815059  0.64649569  0.14862345    -0.06000
C629        C  0.23372691  0.63164530  0.14706116    -0.00100
C630        C  0.27460084  0.65764708  0.15167091    -0.08500
C631        C  0.30280368  0.64287520  0.15615878     0.61800
H632        H  0.32071838  0.71824557  0.15369780     0.12500
H633        H  0.17659383  0.62594716  0.14714356     0.12500
C634        C  0.19485446  0.70250574  0.15268487     0.62100
F635        F  0.34043182  0.67299886  0.16418043    -0.23100
F636        F  0.30574241  0.62534131  0.12860764    -0.20400
F637        F  0.28884520  0.61591331  0.18042186    -0.20100
F638        F  0.19316397  0.71948450  0.12501203    -0.20200
F639        F  0.20762315  0.73013647  0.17695909    -0.20500
F640        F  0.15694433  0.67241118  0.16001582    -0.23200
C641        C  0.37349181  0.53039001  0.13729728    -0.06000
C642        C  0.39350521  0.56887846  0.14938499    -0.00100
C643        C  0.37216896  0.58205242  0.16739677    -0.08600
C644        C  0.33061580  0.56029998  0.16567771    -0.06000
C645        C  0.31049448  0.52596477  0.14687696    -0.00100
C646        C  0.33194192  0.50864829  0.13512691    -0.08500
C647        C  0.31209009  0.47016529  0.11688507     0.61800
H648        H  0.39082758  0.51917859  0.12668667     0.12500
H649        H  0.31370509  0.57139491  0.17716469     0.12500
C650        C  0.39325884  0.61837956  0.18842186     0.62100
F651        F  0.33802938  0.45740190  0.10972815    -0.23100
F652        F  0.29784884  0.47546670  0.08885656    -0.20400
F653        F  0.28137634  0.44121499  0.13453872    -0.20100
F654        F  0.41675316  0.65131165  0.17055696    -0.20200
F655        F  0.41679916  0.61354284  0.20973293    -0.20500
F656        F  0.36687274  0.62477280  0.20546225    -0.23200
C657        C  0.21437337  0.44386092  0.97540258    -0.06000
C658        C  0.24842280  0.44123583  0.97364895    -0.00100
C659        C  0.26020359  0.43047786  0.00142386    -0.08600
C660        C  0.24319276  0.43136327  0.03082340    -0.06000
C661        C  0.21474459  0.44247373  0.03287164    -0.00100
C662        C  0.19723448  0.44483081  0.00457308    -0.08500
C663        C  0.16262863  0.45135264  0.00403657     0.61800
H664        H  0.20219855  0.44718523  0.95386506     0.12500
H665        H  0.25400220  0.42611003  0.05248906     0.12500
C666        C  0.29231461  0.42077107  0.00012876     0.62100
F667        F  0.13511692  0.42610383  0.98207747    -0.23100
F668        F  0.17596021  0.48974898  0.99549560    -0.20400
F669        F  0.14362899  0.44430793  0.03299959    -0.20100
F670        F  0.32728337  0.45450686  0.99292296    -0.20200
F671        F  0.28357149  0.39235526  0.97701373    -0.20500
F672        F  0.29659883  0.40665433  0.02872917    -0.23200
C673        C  0.42282606  0.52185232  0.99804165    -0.06000
C674        C  0.43758038  0.54420589  0.97046970    -0.00100
C675        C  0.47584199  0.57846553  0.97122834    -0.08600
C676        C  0.49302150  0.59386917  0.00097708    -0.06000
C677        C  0.47337735  0.57556151  0.02921527    -0.00100
C678        C  0.43997182  0.53701372  0.02772793    -0.08500
C679        C  0.41894661  0.51439728  0.05718033     0.61800
H680        H  0.39562384  0.49395443  0.99655400     0.12500
H681        H  0.51991027  0.62246349  0.00251766     0.12500
C682        C  0.49736883  0.60025389  0.94146464     0.62100
F683        F  0.38910614  0.47625429  0.05022145    -0.23100
F684        F  0.40229887  0.53354897  0.07215840    -0.20400
F685        F  0.44538146  0.51231041  0.07714217    -0.20100
F686        F  0.47774644  0.61689096  0.92783823    -0.20200
F687        F  0.49934266  0.57440532  0.92022742    -0.20500
F688        F  0.53574225  0.62999873  0.94788845    -0.23200
C689        C  0.40120377  0.65415949  0.88318013    -0.06000
C690        C  0.42064620  0.63607098  0.87009969    -0.00100
C691        C  0.45734739  0.65937994  0.85447454    -0.08600
C692        C  0.47460162  0.70083658  0.85451197    -0.06000
C693        C  0.45622652  0.71917297  0.86978908    -0.00100
C694        C  0.41838289  0.69506881  0.88427761    -0.08500
C695        C  0.39676469  0.71155692  0.90316020     0.61800
H696        H  0.37272858  0.63553240  0.89434119     0.12500
H697        H  0.50323721  0.71932963  0.84357539     0.12500
C698        C  0.47860821  0.64069979  0.83894867     0.62100
F699        F  0.36269472  0.68233011  0.91758975    -0.23100
F700        F  0.38567619  0.73161667  0.88333471    -0.20400
F701        F  0.42092065  0.73647769  0.92693366    -0.20100
F702        F  0.45525680  0.61509611  0.81517835    -0.20200
F703        F  0.48617241  0.62011279  0.86118589    -0.20500
F704        F  0.51425565  0.66857192  0.82559866    -0.23200
C705        C  0.26429944  0.56863456  0.84861339    -0.06000
C706        C  0.25325253  0.54273366  0.87424531    -0.00100
C707        C  0.22167453  0.53720867  0.89395981    -0.08600
C708        C  0.20688449  0.56240293  0.89100187    -0.06000
C709        C  0.22097051  0.59125951  0.86768942    -0.00100
C710        C  0.24697806  0.59170734  0.84404163    -0.08500
C711        C  0.25611581  0.61428289  0.81346597     0.61800
H712        H  0.28703431  0.57133545  0.83237790     0.12500
H713        H  0.18575681  0.56133244  0.90820856     0.12500
C714        C  0.20532327  0.50645224  0.91925363     0.62100
F715        F  0.24378585  0.58788188  0.78831105    -0.23100
F716        F  0.29639057  0.63984843  0.81066921    -0.20400
F717        F  0.23703493  0.63519006  0.81142195    -0.20100
F718        F  0.23419550  0.51623825  0.94176186    -0.20200
F719        F  0.19397953  0.47030112  0.90546250    -0.20500
F720        F  0.17248659  0.50363629  0.93402353    -0.23200
C721        C  0.03904703  0.40827540  0.07973279    -0.06000
C722        C  0.05775674  0.40305475  0.10580830    -0.00100
C723        C  0.03417751  0.37401256  0.12860622    -0.08600
C724        C  0.99264720  0.35580951  0.12691024    -0.06000
C725        C  0.97465607  0.36571751  0.10325442    -0.00100
C726        C  0.99782034  0.38933253  0.07766272    -0.08500
C727        C  0.98034164  0.39714037  0.04875355     0.61800
H728        H  0.05688907  0.42907128  0.06148609     0.12500
H729        H  0.97424602  0.33680242  0.14583834     0.12500
C730        C  0.05234624  0.36439249  0.15593867     0.62100
F731        F  0.99856542  0.39405911  0.02158520    -0.23100
F732        F  0.98659738  0.43481154  0.05072632    -0.20400
F733        F  0.94025466  0.37041103  0.04584888    -0.20100
F734        F  0.07346580  0.39728980  0.17503156    -0.20200
F735        F  0.07721661  0.35217902  0.14426862    -0.20500
F736        F  0.02389866  0.33447784  0.17453550    -0.23200
C737        C  0.35240164  0.98362310  0.13279285    -0.06000
C738        C  0.35877119  0.96184908  0.10954388    -0.00100
C739        C  0.38051216  0.98136919  0.08187122    -0.08600
C740        C  0.40133509  0.02276566  0.08113030    -0.06000
C741        C  0.39918728  0.04498081  0.10630549    -0.00100
C742        C  0.37219316  0.02515133  0.13147990    -0.08500
C743        C  0.36653197  0.04796938  0.15798236     0.61800
H744        H  0.33522128  0.96841793  0.15358850     0.12500
H745        H  0.42154018  0.03787428  0.06166217     0.12500
C746        C  0.38437055  0.95979033  0.05341231     0.62100
F747        F  0.33541221  0.02345959  0.17772613    -0.23100
F748        F  0.35856359  0.07514805  0.14528926    -0.20400
F749        F  0.40036364  0.06740697  0.17603205    -0.20100
F750        F  0.35767263  0.91967645  0.05436445    -0.20200
F751        F  0.42233291  0.96638480  0.05209428    -0.20500
F752        F  0.37721901  0.97387763  0.02599862    -0.23200
C753        C  0.70470442  0.28292417  0.15153720    -0.06000
C754        C  0.72376393  0.26367390  0.13945557    -0.00100
C755        C  0.70140092  0.22206383  0.13543431    -0.08600
C756        C  0.66012874  0.20247215  0.13939508    -0.06000
C757        C  0.64069697  0.22321493  0.14544876    -0.00100
C758        C  0.66344485  0.26324900  0.15506848    -0.08500
C759        C  0.64477770  0.28608967  0.16745631     0.61800
H760        H  0.72204857  0.31432867  0.15624311     0.12500
H761        H  0.64245094  0.17127364  0.13439388     0.12500
C762        C  0.71980983  0.19872238  0.12371087     0.62100
F763        F  0.67110474  0.31778816  0.18604800    -0.23100
F764        F  0.61204891  0.26218132  0.18598729    -0.20400
F765        F  0.63362013  0.30022072  0.14234768    -0.20100
F766        F  0.74938925  0.20399058  0.14413112    -0.20200
F767        F  0.73512824  0.21129539  0.09370433    -0.20500
F768        F  0.69257641  0.15872520  0.12186979    -0.23200
C769        C  0.99596142  0.61197425  0.92556250    -0.06000
C770        C  0.97650522  0.61456554  0.89884622    -0.00100
C771        C  0.99853014  0.64474181  0.87660242    -0.08600
C772        C  0.04027625  0.66672586  0.87912175    -0.06000
C773        C  0.06001295  0.65975190  0.90348554    -0.00100
C774        C  0.03716929  0.63544842  0.92900151    -0.08500
C775        C  0.05475138  0.63301957  0.96009143     0.61800
H776        H  0.97886073  0.59026743  0.94350928     0.12500
H777        H  0.05777001  0.68733895  0.86077135     0.12500
C778        C  0.97823084  0.65224530  0.84962794     0.62100
F779        F  0.03447848  0.63789833  0.98496985    -0.23100
F780        F  0.09415700  0.66196408  0.96317266    -0.20400
F781        F  0.05094818  0.59644431  0.96251162    -0.20100
F782        F  0.95174000  0.66201331  0.86197082    -0.20200
F783        F  0.95814406  0.61892266  0.83076225    -0.20500
F784        F  0.00495724  0.68294293  0.83071072    -0.23200
C785        C  0.91578213  0.48599021  0.99187282    -0.06000
C786        C  0.90591288  0.46189591  0.96481988    -0.00100
C787        C  0.90312959  0.42506682  0.96700935    -0.08600
C788        C  0.90068360  0.40968185  0.99725048    -0.06000
C789        C  0.90165013  0.43055231  0.02477845    -0.00100
C790        C  0.91335811  0.47085027  0.02231933    -0.08500
C791        C  0.92050169  0.49699795  0.05120159     0.61800
H792        H  0.92188833  0.51570183  0.98903048     0.12500
H793        H  0.89457639  0.37984754  0.99952115     0.12500
C794        C  0.90046028  0.40135671  0.93774178     0.62100
F795        F  0.93307855  0.53539070  0.04284784    -0.23100
F796        F  0.94948583  0.49777370  0.06989544    -0.20400
F797        F  0.88604099  0.48288462  0.06864541    -0.20100
F798        F  0.93267812  0.42390530  0.91832958    -0.20200
F799        F  0.86612180  0.39063973  0.92152933    -0.20500
F800        F  0.90043670  0.36742467  0.94523291    -0.23200
C801        C  0.65512433  0.03527910  0.92008648    -0.06000
C802        C  0.66660019  0.05281782  0.89025007    -0.00100
C803        C  0.66616589  0.02992330  0.86394663    -0.08600
C804        C  0.64845384  0.98879774  0.86743526    -0.06000
C805        C  0.63130543  0.97049400  0.89634623    -0.00100
C806        C  0.63834090  0.99444465  0.92365689    -0.08500
C807        C  0.62608613  0.97756422  0.95660639     0.61800
H808        H  0.65662244  0.05305785  0.94040468     0.12500
H809        H  0.64358571  0.97042389  0.84670839     0.12500
C810        C  0.68245059  0.04869358  0.83199093     0.62100
F811        F  0.65761239  0.99807621  0.97705671    -0.23100
F812        F  0.61489724  0.93824499  0.95749101    -0.20400
F813        F  0.59489719  0.98141264  0.96702904    -0.20100
F814        F  0.71998856  0.08124198  0.83578147    -0.20200
F815        F  0.65823955  0.06034715  0.81874787    -0.20500
F816        F  0.68505225  0.02282440  0.81113227    -0.23200
C817        C  0.53769426  0.10878518  0.01145322    -0.06000
C818        C  0.56475788  0.12811041  0.03619493    -0.00100
C819        C  0.60506088  0.14035073  0.03135274    -0.08600
C820        C  0.61790675  0.13790707  0.00074246    -0.06000
C821        C  0.59176138  0.12331158  0.97513341    -0.00100
C822        C  0.55070171  0.10602261  0.98070809    -0.08500
C823        C  0.52126341  0.08618353  0.95404234     0.61800
H824        H  0.50679535  0.09862775  0.01572931     0.12500
H825        H  0.64919312  0.15051562  0.99605885     0.12500
C826        C  0.63463573  0.15674978  0.05823529     0.62100
F827        F  0.48268244  0.07033283  0.96452889    -0.23100
F828        F  0.52521860  0.05607651  0.94123647    -0.20400
F829        F  0.52816481  0.11295917  0.93060319    -0.20100
F830        F  0.61941471  0.13178513  0.08385818    -0.20200
F831        F  0.64237981  0.19380352  0.06694220    -0.20500
F832        F  0.67010236  0.15986553  0.04968815    -0.23200
C833        C  0.80829775  0.28866681  0.00047767    -0.06000
C834        C  0.81172943  0.26571017  0.02373588    -0.00100
C835        C  0.79725191  0.22542125  0.01720244    -0.08600
C836        C  0.77465598  0.20825004  0.98926934    -0.06000
C837        C  0.76726711  0.23080900  0.96794985    -0.00100
C838        C  0.78622917  0.27204754  0.97285645    -0.08500
C839        C  0.78227821  0.29852216  0.94944309     0.61800
H840        H  0.82032744  0.31964638  0.00547030     0.12500
H841        H  0.76115131  0.17696404  0.98472407     0.12500
C842        C  0.80551376  0.20114137  0.03974111     0.62100
F843        F  0.80491427  0.33788159  0.95793102    -0.23100
F844        F  0.74337644  0.28900207  0.94791546    -0.20400
F845        F  0.79484334  0.29381030  0.91995371    -0.20100
F846        F  0.78772923  0.19834284  0.06869769    -0.20200
F847        F  0.84588022  0.21906924  0.04411426    -0.20500
F848        F  0.79162566  0.16345831  0.02805621    -0.23200
C849        C  0.80364046  0.31305182  0.85028487    -0.06000
C850        C  0.76245370  0.29595770  0.85115422    -0.00100
C851        C  0.74644227  0.31995434  0.84513734    -0.08600
C852        C  0.77129848  0.36090984  0.84632827    -0.06000
C853        C  0.81206795  0.37845935  0.85061689    -0.00100
C854        C  0.82903122  0.35435868  0.84946264    -0.08500
C855        C  0.87305993  0.37031583  0.84781330     0.61800
H856        H  0.81608987  0.29443226  0.85300100     0.12500
H857        H  0.75840761  0.37932500  0.84569300     0.12500
C858        C  0.70320888  0.30345602  0.83844875     0.62100
F859        F  0.88427600  0.35602961  0.87279212    -0.23100
F860        F  0.89526566  0.41095838  0.84860480    -0.20400
F861        F  0.88146391  0.35758998  0.81975894    -0.20100
F862        F  0.68552549  0.30966628  0.86448544    -0.20200
F863        F  0.68390364  0.26370377  0.83140840    -0.20500
F864        F  0.69956416  0.32230866  0.81248851    -0.23200
C865        C  0.35498361  0.37496757  0.86475991    -0.06000
C866        C  0.35985416  0.39935751  0.89085847    -0.00100
C867        C  0.37971908  0.39780544  0.91819582    -0.08600
C868        C  0.39907343  0.37649668  0.91674505    -0.06000
C869        C  0.39866096  0.35653817  0.88909144    -0.00100
C870        C  0.37469102  0.35376684  0.86330616    -0.08500
C871        C  0.37265352  0.33096756  0.83353607     0.61800
H872        H  0.33941228  0.37603718  0.84417034     0.12500
H873        H  0.41734937  0.37819422  0.93646802     0.12500
C874        C  0.38338430  0.42010046  0.94863362     0.62100
F875        F  0.34356402  0.32703578  0.81313765    -0.23100
F876        F  0.36428185  0.29367238  0.84153039    -0.20400
F877        F  0.40848649  0.35031022  0.81775441    -0.20100
F878        F  0.35872079  0.43511084  0.94902233    -0.20200
F879        F  0.42197435  0.45077597  0.95217714    -0.20500
F880        F  0.37332903  0.39505417  0.97414866    -0.23200
C881        C  0.51317186  0.27779099  0.98848138    -0.06000
C882        C  0.47592544  0.26925836  0.97829753    -0.00100
C883        C  0.44167352  0.23846702  0.99289217    -0.08600
C884        C  0.44623445  0.21738505  0.01775287    -0.06000
C885        C  0.48384041  0.22502862  0.02699822    -0.00100
C886        C  0.51813154  0.25596145  0.01178642    -0.08500
C887        C  0.56031912  0.26647688  0.01917033     0.61800
H888        H  0.53896623  0.30101062  0.97656902     0.12500
H889        H  0.42042409  0.19417355  0.02965457     0.12500
C890        C  0.40091202  0.22848022  0.98249583     0.62100
F891        F  0.58836238  0.29905751  0.00256853    -0.23100
F892        F  0.56538817  0.23545330  0.01090638    -0.20400
F893        F  0.56825263  0.27533472  0.05091274    -0.20100
F894        F  0.39371280  0.21265450  0.95218937    -0.20200
F895        F  0.39862721  0.26217663  0.98265076    -0.20500
F896        F  0.37170389  0.20137501  0.00240152    -0.23200
C897        C  0.70077193  0.42228504  0.85517085    -0.06000
C898        C  0.72264274  0.46061219  0.86820572    -0.00100
C899        C  0.70282551  0.48159924  0.87451900    -0.08600
C900        C  0.66141534  0.46145323  0.87156245    -0.06000
C901        C  0.63953090  0.42168871  0.86261057    -0.00100
C902        C  0.65962371  0.40309159  0.85110371    -0.08500
C903        C  0.63849699  0.36312741  0.83472266     0.61800
H904        H  0.71580447  0.40682200  0.84849474     0.12500
H905        H  0.64550764  0.47578708  0.87869127     0.12500
C906        C  0.72425842  0.52407355  0.88623353     0.62100
F907        F  0.65985788  0.36374878  0.80829906    -0.23100
F908        F  0.60119151  0.35299427  0.82445897    -0.20400
F909        F  0.63506846  0.33473074  0.85532172    -0.20100
F910        F  0.75268813  0.54791149  0.86436186    -0.20200
F911        F  0.74170916  0.52686981  0.91517579    -0.20500
F912        F  0.69896179  0.53828699  0.89025707    -0.23200
C913        C  0.55067238  0.24490133  0.84877388    -0.06000
C914        C  0.52808096  0.24078474  0.87595426    -0.00100
C915        C  0.52348557  0.21321598  0.89919359    -0.08600
C916        C  0.54779485  0.19714267  0.89774075    -0.06000
C917        C  0.57321894  0.20406066  0.87212111    -0.00100
C918        C  0.57204573  0.22538997  0.84583939    -0.08500
C919        C  0.59130744  0.22736543  0.81417434     0.61800
H920        H  0.55293960  0.26460590  0.83022871     0.12500
H921        H  0.54766776  0.17989417  0.91745015     0.12500
C922        C  0.49326669  0.19918955  0.92568172     0.62100
F923        F  0.56258114  0.21257521  0.79091634    -0.23100
F924        F  0.60961385  0.20556477  0.81336198    -0.20400
F925        F  0.61879053  0.26609048  0.80724275    -0.20100
F926        F  0.46764178  0.21288666  0.92300416    -0.20200
F927        F  0.51246028  0.21107870  0.95442472    -0.20500
F928        F  0.47087727  0.15847041  0.92496382    -0.23200
C929        C  0.65032132  0.62311466  0.07761897    -0.06000
C930        C  0.66430896  0.61848248  0.10669570    -0.00100
C931        C  0.66669968  0.64257267  0.13279914    -0.08600
C932        C  0.64953980  0.66620921  0.13005470    -0.06000
C933        C  0.62964867  0.66549750  0.10236663    -0.00100
C934        C  0.63348936  0.64671724  0.07489435    -0.08500
C935        C  0.61767285  0.64850553  0.04275047     0.61800
H936        H  0.64961601  0.60561537  0.05735114     0.12500
H937        H  0.64705925  0.68122343  0.15076347     0.12500
C938        C  0.68352848  0.64021360  0.16426472     0.62100
F939        F  0.64769855  0.66123299  0.02050265    -0.23100
F940        F  0.60376243  0.67420449  0.04244473    -0.20400
F941        F  0.58731401  0.61134097  0.03411032    -0.20100
F942        F  0.72156435  0.64771307  0.15986255    -0.20200
F943        F  0.66024171  0.60304417  0.17678588    -0.20500
F944        F  0.68501617  0.66740284  0.18603391    -0.23200
C945        C  0.78480808  0.52372725  0.03283814    -0.06000
C946        C  0.76473604  0.54426192  0.03147025    -0.00100
C947        C  0.77102138  0.56841040  0.00492425    -0.08600
C948        C  0.79325578  0.56688763  0.97873807    -0.06000
C949        C  0.80909305  0.54206975  0.97880150    -0.00100
C950        C  0.80654623  0.52194825  0.00712079    -0.08500
C951        C  0.82634725  0.49809692  0.01032885     0.61800
H952        H  0.78089116  0.50645491  0.05376230     0.12500
H953        H  0.79589800  0.58276830  0.95727767     0.12500
C954        C  0.75306669  0.59412735  0.00386511     0.62100
F955        F  0.82629034  0.48720822  0.04137678    -0.23100
F956        F  0.86508931  0.52077668  0.00051717    -0.20400
F957        F  0.80698524  0.46408866  0.99221022    -0.20100
F958        F  0.76600186  0.61959011  0.02965253    -0.20200
F959        F  0.71230806  0.57094525  0.00486021    -0.20500
F960        F  0.76384123  0.61644429  0.97658553    -0.23200
C961        C  0.60306842  0.49263530  0.99665378    -0.06000
C962        C  0.58036154  0.47340811  0.02357248    -0.00100
C963        C  0.53960242  0.44523583  0.01946547    -0.08600
C964        C  0.52553806  0.43125587  0.98850823    -0.06000
C965        C  0.55079563  0.44590072  0.96210310    -0.00100
C966        C  0.58870801  0.47968750  0.96594357    -0.08500
C967        C  0.61612110  0.50111263  0.93854064     0.61800
H968        H  0.63359399  0.51605535  0.99958269     0.12500
H969        H  0.49607152  0.40602732  0.98512691     0.12500
C970        C  0.51205349  0.42770035  0.04745419     0.62100
F971        F  0.63022302  0.54102248  0.94150839    -0.23100
F972        F  0.59735725  0.48861873  0.90957743    -0.20400
F973        F  0.64766667  0.49514972  0.93925926    -0.20100
F974        F  0.51312230  0.45743026  0.06580371    -0.20200
F975        F  0.52388806  0.40684893  0.06525972    -0.20500
F976        F  0.47334767  0.40234733  0.03817829    -0.23200
C977        C  0.55840434  0.31510175  0.15898426    -0.06000
C978        C  0.52614645  0.29180475  0.13887519    -0.00100
C979        C  0.51055722  0.31043568  0.12075270    -0.08600
C980        C  0.53153037  0.35160076  0.11924184    -0.06000
C981        C  0.56627933  0.37506138  0.13632465    -0.00100
C982        C  0.57814392  0.35680668  0.15872207    -0.08500
C983        C  0.61157378  0.38112557  0.18170812     0.61800
H984        H  0.56964931  0.30054422  0.17329997     0.12500
H985        H  0.52128457  0.36548882  0.10340524     0.12500
C986        C  0.47422548  0.28825002  0.10010178     0.62100
F987        F  0.64611034  0.40563606  0.16559827    -0.23100
F988        F  0.60190521  0.40389596  0.20041352    -0.20400
F989        F  0.61844464  0.35759893  0.20138025    -0.20100
F990        F  0.45124935  0.24911187  0.10835296    -0.20200
F991        F  0.48582770  0.29081247  0.06877507    -0.20500
F992        F  0.45097852  0.30493123  0.10329587    -0.23200
C993        C  0.77829738  0.47170520  0.14460385    -0.06000
C994        C  0.74215851  0.44952403  0.12822807    -0.00100
C995        C  0.73125054  0.41134573  0.11635077    -0.08600
C996        C  0.75788010  0.39838442  0.11997109    -0.06000
C997        C  0.79573189  0.42241603  0.13264076    -0.00100
C998        C  0.80561183  0.45881406  0.14679186    -0.08500
C999        C  0.84523742  0.48445189  0.16262971     0.61800
H1000       H  0.78596496  0.50024754  0.15421496     0.12500
H1001       H  0.75066030  0.37016338  0.11005871     0.12500
C1002       C  0.69375721  0.38514122  0.09723620     0.62100
F1003       F  0.87524093  0.49602362  0.14052064    -0.23100
F1004       F  0.85004103  0.46345125  0.18629112    -0.20400
F1005       F  0.84826367  0.51789845  0.17623428    -0.20100
F1006       F  0.69311249  0.40496931  0.07071873    -0.20200
F1007       F  0.66062502  0.37427646  0.11561578    -0.20500
F1008       F  0.69138014  0.35069882  0.08672277    -0.23200
C1009       C  0.69549025  0.17127014  0.73170096    -0.06000
C1010       C  0.66102619  0.14316370  0.71564854    -0.00100
C1011       C  0.62802708  0.11547634  0.73400091    -0.08600
C1012       C  0.63079907  0.11813166  0.76745402    -0.06000
C1013       C  0.66501622  0.14711410  0.78307301    -0.00100
C1014       C  0.69793461  0.17441661  0.76478756    -0.08500
C1015       C  0.73438334  0.20913587  0.77958184     0.61800
H1016       H  0.72081302  0.19227347  0.71803947     0.12500
H1017       H  0.60600399  0.09751481  0.78187628     0.12500
C1018       C  0.59005237  0.08332797  0.71890752     0.62100
F1019       F  0.76183217  0.23318859  0.75713175    -0.23100
F1020       F  0.75306454  0.19622927  0.79928109    -0.20400
F1021       F  0.72297838  0.23176915  0.79639469    -0.20100
F1022       F  0.59818734  0.06029773  0.69903471    -0.20200
F1023       F  0.57268359  0.10001278  0.70187039    -0.20500
F1024       F  0.56291242  0.05881125  0.74132918    -0.23200
C1025       C  0.88018677  0.38439881  0.23149025    -0.06000
C1026       C  0.86795988  0.34788206  0.21663128    -0.00100
C1027       C  0.85375508  0.31393938  0.23581683    -0.08600
C1028       C  0.85159574  0.31795478  0.26887337    -0.06000
C1029       C  0.86293383  0.35429897  0.28368656    -0.00100
C1030       C  0.87804671  0.38848705  0.26452880    -0.08500
C1031       C  0.89225222  0.42939505  0.27825746     0.61800
H1032       H  0.89076572  0.41008653  0.21675092     0.12500
H1033       H  0.84014674  0.29206605  0.28349738     0.12500
C1034       C  0.84092804  0.27346727  0.22198704     0.62100
F1035       F  0.90817532  0.45824132  0.25527499    -0.23100
F1036       F  0.92137769  0.43884821  0.30054189    -0.20400
F1037       F  0.86091213  0.43051460  0.29209985    -0.20100
F1038       F  0.87045288  0.27558368  0.20261366    -0.20200
F1039       F  0.80655834  0.25975013  0.20476776    -0.20500
F1040       F  0.83343488  0.24619835  0.24532583    -0.23200
C1041       C  0.72424044  0.21869483  0.50503267    -0.06000
C1042       C  0.74811786  0.22241240  0.53061997    -0.00100
C1043       C  0.78955445  0.24204092  0.52639897    -0.08600
C1044       C  0.80615111  0.26248322  0.49779726    -0.06000
C1045       C  0.78213058  0.26155504  0.47298279    -0.00100
C1046       C  0.74034699  0.23707964  0.47596552    -0.08500
C1047       C  0.71212977  0.23275353  0.44998528     0.61800
H1048       H  0.69252253  0.20315030  0.50869554     0.12500
H1049       H  0.83794085  0.28010397  0.49493093     0.12500
C1050       C  0.81563686  0.24110907  0.55198206     0.62100
F1051       F  0.67398377  0.20205279  0.45579662    -0.23100
F1052       F  0.72399146  0.22479565  0.42140929    -0.20400
F1053       F  0.71116673  0.26700681  0.44811285    -0.20100
F1054       F  0.80427324  0.20240542  0.55785706    -0.20200
F1055       F  0.81185755  0.25801635  0.57954169    -0.20500
F1056       F  0.85506940  0.26115634  0.54310350    -0.23200
C1057       C  0.84150621  0.54457369  0.77143231    -0.06000
C1058       C  0.86900849  0.53573029  0.78408440    -0.00100
C1059       C  0.89209460  0.52775078  0.76248238    -0.08600
C1060       C  0.88495785  0.52680039  0.72972494    -0.06000
C1061       C  0.85678879  0.53462746  0.71706551    -0.00100
C1062       C  0.83522664  0.54467889  0.73849140    -0.08500
C1063       C  0.80592857  0.55589221  0.72713244     0.61800
H1064       H  0.82433941  0.55119763  0.78774227     0.12500
H1065       H  0.90167970  0.51951726  0.71350078     0.12500
C1066       C  0.92429692  0.52012137  0.77321870     0.62100
F1067       F  0.79077674  0.56748704  0.75190046    -0.23100
F1068       F  0.77451486  0.52398228  0.71218463    -0.20400
F1069       F  0.82447304  0.58707976  0.70636371    -0.20100
F1070       F  0.90790665  0.48619929  0.79106229    -0.20200
F1071       F  0.95216796  0.55186149  0.79089735    -0.20500
F1072       F  0.94399867  0.51512170  0.74792907    -0.23200
C1073       C  0.90091578  0.45091561  0.52630170    -0.06000
C1074       C  0.89071050  0.48004468  0.52631644    -0.00100
C1075       C  0.89272841  0.49887333  0.49751241    -0.08600
C1076       C  0.89423403  0.48117816  0.46900962    -0.06000
C1077       C  0.89652838  0.44708300  0.46892724    -0.00100
C1078       C  0.90347923  0.43368673  0.49762952    -0.08500
C1079       C  0.91036545  0.39945849  0.49784819     0.61800
H1080       H  0.90274336  0.43893870  0.54865605     0.12500
H1081       H  0.88994842  0.49189159  0.44676785     0.12500
C1082       C  0.88936141  0.53513411  0.49625820     0.62100
F1083       F  0.91920830  0.39266754  0.52789379    -0.23100
F1084       F  0.94166245  0.40756036  0.47795451    -0.20400
F1085       F  0.87697984  0.36560762  0.48739615    -0.20100
F1086       F  0.90434331  0.55764595  0.52357398    -0.20200
F1087       F  0.85010790  0.52387953  0.49281211    -0.20500
F1088       F  0.91075884  0.55836115  0.47084596    -0.23200
C1089       C  0.79263101  0.31963984  0.62655777    -0.06000
C1090       C  0.75813591  0.30243327  0.64509669    -0.00100
C1091       C  0.74981496  0.32696444  0.66426843    -0.08600
C1092       C  0.77258992  0.36798944  0.65985821    -0.06000
C1093       C  0.80235525  0.38426739  0.63668962    -0.00100
C1094       C  0.81467368  0.36033980  0.62159920    -0.08500
C1095       C  0.84904396  0.37728721  0.59850892     0.61800
H1096       H  0.79967433  0.30080162  0.61295607     0.12500
H1097       H  0.76523973  0.38716791  0.67269016     0.12500
C1098       C  0.71649541  0.31011536  0.68840762     0.62100
F1099       F  0.86025031  0.35035707  0.59060681    -0.23100
F1100       F  0.88133628  0.41001501  0.61183294    -0.20400
F1101       F  0.83815504  0.38786220  0.57109498    -0.20100
F1102       F  0.71615116  0.27986344  0.70472679    -0.20200
F1103       F  0.68064672  0.29592059  0.67337566    -0.20500
F1104       F  0.72104875  0.33849075  0.71031534    -0.23200
C1105       C  0.46567656  0.16752902  0.22877162    -0.06000
C1106       C  0.47636876  0.14175169  0.21540261    -0.00100
C1107       C  0.48210492  0.11643091  0.23505990    -0.08600
C1108       C  0.47966303  0.12002196  0.26795796    -0.06000
C1109       C  0.47150950  0.14762115  0.28145966    -0.00100
C1110       C  0.46350243  0.17133488  0.26170575    -0.08500
C1111       C  0.45575984  0.20255676  0.27500375     0.61800
H1112       H  0.46110408  0.18626769  0.21311141     0.12500
H1113       H  0.48512288  0.10185054  0.28357367     0.12500
C1114       C  0.49042709  0.08558620  0.22166642     0.62100
F1115       F  0.45026221  0.22309375  0.25129170    -0.23100
F1116       F  0.48782048  0.22932140  0.29284810    -0.20400
F1117       F  0.42207378  0.18534659  0.29364957    -0.20100
F1118       F  0.52799413  0.10364156  0.20872654    -0.20200
F1119       F  0.46306409  0.06340777  0.19854445    -0.20500
F1120       F  0.48811106  0.06003566  0.24484415    -0.23200
C1121       C  0.57309991  0.12464481  0.50692834    -0.06000
C1122       C  0.58152684  0.15557000  0.52824098    -0.00100
C1123       C  0.57120238  0.18380018  0.52046678    -0.08600
C1124       C  0.55245383  0.17976738  0.49171481    -0.06000
C1125       C  0.54612397  0.15061610  0.46936057    -0.00100
C1126       C  0.55630311  0.12225190  0.47690667    -0.08500
C1127       C  0.55191434  0.09158343  0.45283583     0.61800
H1128       H  0.58201237  0.10392318  0.51319316     0.12500
H1129       H  0.54430583  0.20111949  0.48561127     0.12500
C1130       C  0.58059139  0.21887820  0.54178247     0.62100
F1131       F  0.56548672  0.06816430  0.46445628    -0.23100
F1132       F  0.57344329  0.10998854  0.42584326    -0.20400
F1133       F  0.51251681  0.06753876  0.44499612    -0.20100
F1134       F  0.62100056  0.24339778  0.54490126    -0.20200
F1135       F  0.56387060  0.20578933  0.57113777    -0.20500
F1136       F  0.56578584  0.24117804  0.52997362    -0.23200
C1137       C  0.64368742  0.22289075  0.34842477    -0.06000
C1138       C  0.62630442  0.24372068  0.36114986    -0.00100
C1139       C  0.65152239  0.28352425  0.37094129    -0.08600
C1140       C  0.69228253  0.29850006  0.37193913    -0.06000
C1141       C  0.70924812  0.27634208  0.36249858    -0.00100
C1142       C  0.68506482  0.23886862  0.34855828    -0.08500
C1143       C  0.70260514  0.21539066  0.33535973     0.61800
H1144       H  0.62447571  0.19308436  0.33985046     0.12500
H1145       H  0.71144865  0.32750233  0.38204655     0.12500
C1146       C  0.63628435  0.31012952  0.38175218     0.62100
F1147       F  0.67403020  0.18011230  0.32190230    -0.23100
F1148       F  0.72089251  0.20712008  0.35922298    -0.20400
F1149       F  0.73015126  0.23698269  0.31217705    -0.20100
F1150       F  0.61484971  0.29629303  0.40957615    -0.20200
F1151       F  0.66659885  0.34846837  0.38735154    -0.20500
F1152       F  0.61280570  0.31133440  0.35832451    -0.23200
C1153       C  0.47177863  0.30453303  0.73174857    -0.06000
C1154       C  0.46862059  0.33420949  0.71629191    -0.00100
C1155       C  0.47017338  0.36515207  0.73500650    -0.08600
C1156       C  0.47592558  0.36553805  0.76805999    -0.06000
C1157       C  0.47947883  0.33605394  0.78300717    -0.00100
C1158       C  0.47763046  0.30514639  0.76462099    -0.08500
C1159       C  0.48378929  0.27402587  0.77946710     0.61800
H1160       H  0.47044796  0.28082204  0.71773549     0.12500
H1161       H  0.47770859  0.38906632  0.78269766     0.12500
C1162       C  0.46507719  0.39724969  0.72072894     0.62100
F1163       F  0.48450848  0.24858480  0.75700940    -0.23100
F1164       F  0.45353591  0.25197489  0.80062336    -0.20400
F1165       F  0.51950101  0.29212795  0.79527987    -0.20100
F1166       F  0.43062289  0.38048254  0.70318741    -0.20200
F1167       F  0.49705663  0.42093431  0.70149346    -0.20500
F1168       F  0.46261790  0.42108149  0.74382262    -0.23200
C1169       C  0.43499427  0.19571296  0.53176405    -0.06000
C1170       C  0.42845037  0.22732009  0.53369547    -0.00100
C1171       C  0.41809277  0.23935369  0.50579154    -0.08600
C1172       C  0.42263459  0.22494888  0.47620609    -0.06000
C1173       C  0.43524713  0.19765124  0.47431824    -0.00100
C1174       C  0.43673553  0.17941296  0.50247122    -0.08500
C1175       C  0.43988956  0.14285757  0.50287574     0.61800
H1176       H  0.44077649  0.18490234  0.55331109     0.12500
H1177       H  0.41938491  0.23720741  0.45446397     0.12500
C1178       C  0.40370611  0.26808842  0.50731205     0.62100
F1179       F  0.47450135  0.15138088  0.51762998    -0.23100
F1180       F  0.43892953  0.12783746  0.47289041    -0.20400
F1181       F  0.40837203  0.11387631  0.51989313    -0.20100
F1182       F  0.43261999  0.30373277  0.51983539    -0.20200
F1183       F  0.37038520  0.25255895  0.52636535    -0.20500
F1184       F  0.39374894  0.27480366  0.47765562    -0.23200
C1185       C  0.68077007  0.47885412  0.62182450    -0.06000
C1186       C  0.70132691  0.46059102  0.63186902    -0.00100
C1187       C  0.67946547  0.42233888  0.64495587    -0.08600
C1188       C  0.63819450  0.40096707  0.64189965    -0.06000
C1189       C  0.61776030  0.41790564  0.62949589    -0.00100
C1190       C  0.63899011  0.45815430  0.62095402    -0.08500
C1191       C  0.61763729  0.47833080  0.60947104     0.61800
H1192       H  0.69754857  0.50843468  0.61254750     0.12500
H1193       H  0.62167925  0.37041526  0.64876586     0.12500
C1194       C  0.69857202  0.40280543  0.66165546     0.62100
F1195       F  0.64349513  0.51799376  0.60401274    -0.23100
F1196       F  0.59054096  0.47500617  0.63214545    -0.20400
F1197       F  0.59807424  0.46090923  0.58152938    -0.20100
F1198       F  0.73608416  0.43012542  0.67226491    -0.20200
F1199       F  0.70046569  0.37629325  0.64116973    -0.20500
F1200       F  0.67632472  0.38277987  0.68793777    -0.23200
C1201       C  0.57124549  0.23041175  0.66414125    -0.06000
C1202       C  0.55961284  0.19695019  0.64520802    -0.00100
C1203       C  0.52136429  0.17790703  0.63112844    -0.08600
C1204       C  0.49994339  0.19748047  0.63151244    -0.06000
C1205       C  0.51487790  0.23429141  0.64641568    -0.00100
C1206       C  0.54857378  0.24846513  0.66603225    -0.08500
C1207       C  0.56188094  0.28247260  0.68912367     0.61800
H1208       H  0.59934339  0.24378592  0.67637854     0.12500
H1209       H  0.47309417  0.18549667  0.61766320     0.12500
C1210       C  0.50225934  0.13820561  0.61430993     0.62100
F1211       F  0.56348879  0.26989731  0.71921143    -0.23100
F1212       F  0.53656272  0.29684852  0.69015557    -0.20400
F1213       F  0.59918545  0.31249021  0.68081013    -0.20100
F1214       F  0.52546235  0.12152168  0.61429925    -0.20200
F1215       F  0.49395141  0.14204270  0.58323945    -0.20500
F1216       F  0.46711108  0.11259488  0.62947410    -0.23200
C1217       C  0.69747982  0.52720167  0.26806393    -0.06000
C1218       C  0.66938735  0.53383303  0.28320856    -0.00100
C1219       C  0.64238274  0.53806497  0.26393544    -0.08600
C1220       C  0.64495714  0.53584024  0.23067646    -0.06000
C1221       C  0.67284856  0.52905294  0.21550275    -0.00100
C1222       C  0.69957878  0.52424543  0.23473756    -0.08500
C1223       C  0.72961313  0.51490671  0.22074444     0.61800
H1224       H  0.71763949  0.52351031  0.28275926     0.12500
H1225       H  0.62449388  0.53912698  0.21606882     0.12500
C1226       C  0.61069827  0.54494158  0.27784951     0.62100
F1227       F  0.74980504  0.50798525  0.24396374    -0.23100
F1228       F  0.75732921  0.54627582  0.20294054    -0.20400
F1229       F  0.71058422  0.48141857  0.20188249    -0.20100
F1230       F  0.62778868  0.57743202  0.29788059    -0.20200
F1231       F  0.58322918  0.51199201  0.29432066    -0.20500
F1232       F  0.59051021  0.55186701  0.25465396    -0.23200
C1233       C  0.78697343  0.58239642  0.47812578    -0.06000
C1234       C  0.74539311  0.56111239  0.47700457    -0.00100
C1235       C  0.72457398  0.54435478  0.50555040    -0.08600
C1236       C  0.74489043  0.54233505  0.53189170    -0.06000
C1237       C  0.78611677  0.55933281  0.53205803    -0.00100
C1238       C  0.80793030  0.58266488  0.50549124    -0.08500
C1239       C  0.85259640  0.60776519  0.50401128     0.61800
H1240       H  0.80330562  0.59697811  0.45683545     0.12500
H1241       H  0.72793866  0.52594089  0.55246171     0.12500
C1242       C  0.68057724  0.52714033  0.50877563     0.62100
F1243       F  0.86633642  0.59720123  0.47769916    -0.23100
F1244       F  0.87086361  0.60460647  0.53052521    -0.20400
F1245       F  0.86337699  0.64678670  0.50109088    -0.20100
F1246       F  0.66130149  0.48653493  0.50681390    -0.20200
F1247       F  0.66687935  0.54124365  0.48558020    -0.20500
F1248       F  0.67199522  0.53779449  0.53778191    -0.23200
C1249       C  0.56017816  0.40700584  0.46640456    -0.06000
C1250       C  0.56677138  0.44511174  0.46578357    -0.00100
C1251       C  0.55165772  0.45820225  0.49030675    -0.08600
C1252       C  0.53347224  0.43351787  0.51655936    -0.06000
C1253       C  0.53055083  0.39661472  0.51886731    -0.00100
C1254       C  0.54308402  0.38247412  0.49256968    -0.08500
C1255       C  0.54161653  0.34321953  0.49217550     0.61800
H1256       H  0.57147186  0.39767251  0.44682619     0.12500
H1257       H  0.52334133  0.44392049  0.53624018     0.12500
C1258       C  0.55656002  0.49857476  0.48957292     0.62100
F1259       F  0.55670176  0.33711205  0.46432645    -0.23100
F1260       F  0.50297358  0.31251580  0.49479735    -0.20400
F1261       F  0.56390827  0.34220535  0.51683715    -0.20100
F1262       F  0.54646832  0.50521810  0.45998053    -0.20200
F1263       F  0.59538141  0.52656655  0.49600375    -0.20500
F1264       F  0.53273714  0.50242007  0.51186772    -0.23200
C1265       C  0.52793311  0.36412808  0.37870797    -0.06000
C1266       C  0.56304824  0.38125628  0.36087173    -0.00100
C1267       C  0.56930429  0.35719237  0.33939846    -0.08600
C1268       C  0.54234930  0.31587038  0.33930043    -0.06000
C1269       C  0.50959018  0.29834254  0.36001089    -0.00100
C1270       C  0.50057203  0.32327820  0.37785397    -0.08500
C1271       C  0.46320719  0.30761393  0.39750327     0.61800
H1272       H  0.52255453  0.38265670  0.39457967     0.12500
H1273       H  0.54904879  0.29674670  0.32552864     0.12500
C1274       C  0.60582221  0.37498112  0.31852930     0.62100
F1275       F  0.44519427  0.32882973  0.39090211    -0.23100
F1276       F  0.47264353  0.31188647  0.42933208    -0.20400
F1277       F  0.43629162  0.26836833  0.39098434    -0.20100
F1278       F  0.60775186  0.40505833  0.30081565    -0.20200
F1279       F  0.60551168  0.34740347  0.29783366    -0.20500
F1280       F  0.63916313  0.39006096  0.33723630    -0.23200
C1281       C  0.74429848  0.44539802  0.34838123    -0.06000
C1282       C  0.75802339  0.48000018  0.36641893    -0.00100
C1283       C  0.79724626  0.49936470  0.37840949    -0.08600
C1284       C  0.81750349  0.47876803  0.37800674    -0.06000
C1285       C  0.80057452  0.44110454  0.36439452    -0.00100
C1286       C  0.76602031  0.42653670  0.34591195    -0.08500
C1287       C  0.75180159  0.39250131  0.32258915     0.61800
H1288       H  0.71596318  0.43251844  0.33662235     0.12500
H1289       H  0.84518632  0.49056072  0.39060406     0.12500
C1290       C  0.81706624  0.54038506  0.39288987     0.62100
F1291       F  0.71404278  0.36309202  0.33053438    -0.23100
F1292       F  0.75074964  0.40568452  0.29262799    -0.20400
F1293       F  0.77617338  0.37699201  0.32127808    -0.20100
F1294       F  0.79677038  0.54033787  0.41973674    -0.20200
F1295       F  0.81765483  0.56640639  0.37101931    -0.20500
F1296       F  0.85578197  0.55379043  0.40145117    -0.23200
C1297       C  0.52667663  0.70024520  0.22887595    -0.06000
C1298       C  0.54141143  0.67814541  0.21449095    -0.00100
C1299       C  0.55250798  0.65657549  0.23415911    -0.08600
C1300       C  0.54698653  0.65700889  0.26723412    -0.06000
C1301       C  0.53240182  0.67931388  0.28160634    -0.00100
C1302       C  0.52228781  0.70161787  0.26190279    -0.08500
C1303       C  0.50644657  0.72657644  0.27522751     0.61800
H1304       H  0.51813682  0.71651258  0.21382416     0.12500
H1305       H  0.55425712  0.63973023  0.28225187     0.12500
C1306       C  0.57104607  0.63394431  0.22085177     0.62100
F1307       F  0.49467443  0.74234071  0.25167118    -0.23100
F1308       F  0.53585457  0.75760110  0.29250462    -0.20400
F1309       F  0.47393598  0.70385697  0.29434526    -0.20100
F1310       F  0.60265656  0.65817539  0.20150239    -0.20200
F1311       F  0.54335027  0.60152480  0.20372687    -0.20500
F1312       F  0.58513120  0.62063607  0.24458175    -0.23200
C1313       C  0.61609174  0.64929051  0.42048275    -0.06000
C1314       C  0.61472003  0.66702272  0.39241202    -0.00100
C1315       C  0.63879351  0.66891398  0.36659530    -0.08600
C1316       C  0.65594898  0.64512720  0.36717884    -0.06000
C1317       C  0.65100955  0.62160692  0.39358043    -0.00100
C1318       C  0.63508745  0.62765714  0.42179181    -0.08500
C1319       C  0.63636990  0.61119995  0.45353794     0.61800
H1320       H  0.59958437  0.64979947  0.44098122     0.12500
H1321       H  0.67023509  0.64223457  0.34612871     0.12500
C1322       C  0.64445882  0.69430644  0.33823965     0.62100
F1323       F  0.65354318  0.64156916  0.47556542    -0.23100
F1324       F  0.65819348  0.59294374  0.45275287    -0.20400
F1325       F  0.59825727  0.58464428  0.46315897    -0.20100
F1326       F  0.65768956  0.73245383  0.34841078    -0.20200
F1327       F  0.60910852  0.67996901  0.32250444    -0.20500
F1328       F  0.67202766  0.69525866  0.31715328    -0.23200
C1329       C  0.30438427  0.82343978  0.24026529    -0.06000
C1330       C  0.33466805  0.85763969  0.22569603    -0.00100
C1331       C  0.36086799  0.88996741  0.24545691    -0.08600
C1332       C  0.35620162  0.88627338  0.27877058    -0.06000
C1333       C  0.32620311  0.85190556  0.29335569    -0.00100
C1334       C  0.29953969  0.81980713  0.27353404    -0.08500
C1335       C  0.26629821  0.78139390  0.28700731     0.61800
H1336       H  0.28442484  0.79899243  0.22517340     0.12500
H1337       H  0.37619082  0.91068382  0.29387943     0.12500
C1338       C  0.39340009  0.92864732  0.23181575     0.62100
F1339       F  0.24708719  0.75287088  0.26373435    -0.23100
F1340       F  0.23856314  0.78790789  0.30147412    -0.20400
F1341       F  0.28126487  0.76664501  0.30876169    -0.20100
F1342       F  0.37786598  0.94207007  0.20938338    -0.20200
F1343       F  0.42225322  0.92327932  0.21804088    -0.20500
F1344       F  0.41130855  0.95766558  0.25490713    -0.23200
C1345       C  0.38269036  0.02972979  0.41825345    -0.06000
C1346       C  0.38851973  0.04689690  0.38826510    -0.00100
C1347       C  0.37034606  0.02198476  0.36151959    -0.08600
C1348       C  0.34906606  0.98065501  0.36539389    -0.06000
C1349       C  0.34661124  0.96347044  0.39484924    -0.00100
C1350       C  0.36236911  0.98834542  0.42198018    -0.08500
C1351       C  0.35874240  0.97114975  0.45464881     0.61800
H1352       H  0.39689242  0.04896519  0.43845215     0.12500
H1353       H  0.33727073  0.96143767  0.34484162     0.12500
C1354       C  0.37508804  0.03907163  0.32867856     0.62100
F1355       F  0.37035536  0.99956007  0.47825309    -0.23100
F1356       F  0.38227750  0.95481622  0.45655931    -0.20400
F1357       F  0.31981795  0.94231959  0.46031971    -0.20100
F1358       F  0.41410512  0.05674837  0.31908679    -0.20200
F1359       F  0.36375288  0.06679784  0.32921295    -0.20500
F1360       F  0.35214182  0.01038741  0.30647692    -0.23200
C1361       C  0.41461792  0.73116938  0.40144169    -0.06000
C1362       C  0.44598252  0.74667298  0.37959470    -0.00100
C1363       C  0.45655473  0.78232163  0.36414378    -0.08600
C1364       C  0.43402337  0.80017783  0.37035214    -0.06000
C1365       C  0.40259287  0.78447412  0.39236159    -0.00100
C1366       C  0.39300003  0.74927984  0.40859756    -0.08500
C1367       C  0.36045584  0.73012100  0.43361217     0.61800
H1368       H  0.40784881  0.70476552  0.41402664     0.12500
H1369       H  0.44139064  0.82718672  0.35846461     0.12500
C1370       C  0.49041931  0.80084258  0.34067885     0.62100
F1371       F  0.35458318  0.69431513  0.44361428    -0.23100
F1372       F  0.32506477  0.72289907  0.42143464    -0.20400
F1373       F  0.37026730  0.75435619  0.46003004    -0.20100
F1374       F  0.48362965  0.77411694  0.31674039    -0.20200
F1375       F  0.52558031  0.81149266  0.35565677    -0.20500
F1376       F  0.49423436  0.83424942  0.32707189    -0.23200
C1377       C  0.11862389  0.46524525  0.23270627    -0.06000
C1378       C  0.15626241  0.47909387  0.21938578    -0.00100
C1379       C  0.18938841  0.49349398  0.23975545    -0.08600
C1380       C  0.18307977  0.49072086  0.27268441    -0.06000
C1381       C  0.14524974  0.47522165  0.28616486    -0.00100
C1382       C  0.11240911  0.46314477  0.26580297    -0.08500
C1383       C  0.07083044  0.44663829  0.27856657     0.61800
H1384       H  0.09383252  0.45549262  0.21684828     0.12500
H1385       H  0.20813187  0.50089695  0.28837401     0.12500
C1386       C  0.23152385  0.51306287  0.22713263     0.62100
F1387       F  0.04309142  0.43396679  0.25456976    -0.23100
F1388       F  0.06849610  0.47516220  0.29600980    -0.20400
F1389       F  0.06117766  0.41481253  0.29749993    -0.20100
F1390       F  0.23756349  0.54083425  0.20474600    -0.20200
F1391       F  0.23827103  0.48507445  0.21358107    -0.20500
F1392       F  0.25911790  0.53219593  0.25090720    -0.23200
C1393       C  0.01652751  0.37155985  0.36500070    -0.06000
C1394       C  0.03552043  0.38819379  0.39385168    -0.00100
C1395       C  0.01210359  0.37951690  0.42171811    -0.08600
C1396       C  0.97064359  0.36019468  0.41889256    -0.06000
C1397       C  0.95226483  0.34977162  0.38919252    -0.00100
C1398       C  0.97521078  0.35344713  0.36192598    -0.08500
C1399       C  0.95634632  0.34058247  0.32938674     0.61800
H1400       H  0.03458626  0.37645641  0.34423282     0.12500
H1401       H  0.95288052  0.35644730  0.43981095     0.12500
C1402       C  0.02914633  0.39005770  0.45480608     0.62100
F1403       F  0.98289466  0.34240965  0.30677720    -0.23100
F1404       F  0.94276377  0.36469073  0.31969457    -0.20400
F1405       F  0.92499969  0.30214238  0.33062127    -0.20100
F1406       F  0.01793567  0.41432266  0.46922192    -0.20200
F1407       F  0.06991612  0.40865973  0.45511830    -0.20500
F1408       F  0.01416205  0.35596747  0.47228736    -0.23200
C1409       C  0.18202849  0.64101090  0.36457973    -0.06000
C1410       C  0.20717624  0.62564024  0.36512490    -0.00100
C1411       C  0.24829546  0.65200355  0.36231299    -0.08600
C1412       C  0.26320590  0.69246622  0.36593968    -0.06000
C1413       C  0.23849708  0.70804338  0.37110563    -0.00100
C1414       C  0.19724729  0.68227578  0.36589935    -0.08500
C1415       C  0.16979478  0.69753698  0.35998441     0.61800
H1416       H  0.15040439  0.62053395  0.36463504     0.12500
H1417       H  0.29499282  0.71211987  0.36618716     0.12500
C1418       C  0.27717775  0.63797362  0.35753611     0.62100
F1419       F  0.13210024  0.66742345  0.35209359    -0.23100
F1420       F  0.18427098  0.72371558  0.33515740    -0.20400
F1421       F  0.16685062  0.71632975  0.38640227    -0.20100
F1422       F  0.25961811  0.60255288  0.34114258    -0.20200
F1423       F  0.29012690  0.63352978  0.38664343    -0.20500
F1424       F  0.30953015  0.66493082  0.33996431    -0.23200
C1425       C  0.30976355  0.55425829  0.34142215    -0.06000
C1426       C  0.29056048  0.52261468  0.36257041    -0.00100
C1427       C  0.31320789  0.50909270  0.37786240    -0.08600
C1428       C  0.35469908  0.53164726  0.37546582    -0.06000
C1429       C  0.37386484  0.56668904  0.35825116    -0.00100
C1430       C  0.35131143  0.57664154  0.33895830    -0.08500
C1431       C  0.37089526  0.61311537  0.31861219     0.61800
H1432       H  0.29215755  0.56342434  0.32882228     0.12500
H1433       H  0.37268141  0.52429756  0.38968761     0.12500
C1434       C  0.29439630  0.47353509  0.39918169     0.62100
F1435       F  0.34455461  0.61325931  0.29726608    -0.23100
F1436       F  0.40178326  0.61468689  0.30154035    -0.20400
F1437       F  0.38523266  0.64620716  0.33772433    -0.20100
F1438       F  0.26606111  0.44098674  0.38254524    -0.20200
F1439       F  0.27725280  0.48091815  0.42493595    -0.20500
F1440       F  0.32182062  0.46476496  0.41040376    -0.23200
C1441       C  0.54178378  0.90502542  0.73525502    -0.06000
C1442       C  0.53605171  0.87150829  0.71876045    -0.00100
C1443       C  0.53393790  0.84010407  0.73589420    -0.08600
C1444       C  0.53739810  0.84323583  0.76917207    -0.06000
C1445       C  0.54228056  0.87641692  0.78620754    -0.00100
C1446       C  0.54538101  0.90848372  0.76862246    -0.08500
C1447       C  0.55226550  0.94627926  0.78435920     0.61800
H1448       H  0.54277702  0.92844870  0.72157155     0.12500
H1449       H  0.53509832  0.81880328  0.78220141     0.12500
C1450       C  0.52595335  0.80255396  0.71917946     0.62100
F1451       F  0.55707047  0.97408760  0.76237368    -0.23100
F1452       F  0.58622323  0.96272383  0.80248775    -0.20400
F1453       F  0.52021922  0.93843364  0.80326047    -0.20100
F1454       F  0.55644032  0.81086148  0.69829513    -0.20200
F1455       F  0.49077802  0.78643767  0.70268888    -0.20500
F1456       F  0.52291680  0.77462684  0.74025401    -0.23200
C1457       C  0.61127402  0.98814536  0.57818008    -0.06000
C1458       C  0.61154243  0.97113299  0.60702964    -0.00100
C1459       C  0.63525007  0.99557846  0.63224429    -0.08600
C1460       C  0.65364130  0.03659934  0.62923687    -0.06000
C1461       C  0.64901129  0.05351721  0.60183472    -0.00100
C1462       C  0.63035440  0.02928384  0.57495904    -0.08500
C1463       C  0.62698042  0.04580208  0.54375207     0.61800
H1464       H  0.59319360  0.96920573  0.55896507     0.12500
H1465       H  0.66810934  0.05526507  0.64969034     0.12500
C1466       C  0.63640773  0.97882460  0.66404631     0.62100
F1467       F  0.62779976  0.02328938  0.51871127    -0.23100
F1468       F  0.65801039  0.08401160  0.53956354    -0.20400
F1469       F  0.59171548  0.04529025  0.54303302    -0.20100
F1470       F  0.63468142  0.94323755  0.66014866    -0.20200
F1471       F  0.60470291  0.97325836  0.68235304    -0.20500
F1472       F  0.67101855  0.00426006  0.67999229    -0.23200
C1473       C  0.56138122  0.79951139  0.51650563    -0.06000
C1474       C  0.53177372  0.80956144  0.51841804     0.07100
C1475       C  0.50875725  0.80378093  0.49071009    -0.08600
C1476       C  0.51268253  0.78370238  0.46465504    -0.06000
C1477       C  0.53748856  0.76807867  0.46492144    -0.00100
C1478       C  0.56444501  0.77849237  0.49019644    -0.08500
C1479       C  0.59530258  0.76665993  0.48978277     0.61800
H1480       H  0.58050199  0.80585049  0.53670894     0.12500
H1481       H  0.49370489  0.77722199  0.44428835     0.12500
C1482       C  0.47855166  0.81662193  0.48813727     0.62100
F1483       F  0.61957521  0.78278798  0.46361714    -0.23100
F1484       F  0.57722566  0.72623121  0.48816981    -0.20400
F1485       F  0.61864107  0.77965470  0.51666728    -0.20100
F1486       F  0.46550648  0.81403498  0.45734340    -0.20200
F1487       F  0.49541518  0.85538303  0.49751231    -0.20500
F1488       F  0.44581545  0.79303395  0.50672797    -0.23200
C1489       C  0.40512900  0.88458784  0.54936698    -0.06000
C1490       C  0.44548845  0.89821875  0.54713763    -0.00100
C1491       C  0.46502414  0.91338213  0.51797615    -0.08600
C1492       C  0.44184134  0.90544082  0.49035397    -0.06000
C1493       C  0.40012981  0.88589239  0.49199976    -0.00100
C1494       C  0.38235820  0.87991418  0.52252782    -0.08500
C1495       C  0.33955040  0.86776382  0.52761892     0.61800
H1496       H  0.39074894  0.87456842  0.57223052     0.12500
H1497       H  0.45615514  0.91336037  0.46737778     0.12500
C1498       C  0.50968885  0.93895382  0.51661420     0.62100
F1499       F  0.33365785  0.87631754  0.55833786    -0.23100
F1500       F  0.31516071  0.82770713  0.52251421    -0.20400
F1501       F  0.32945005  0.88841863  0.50746812    -0.20100
F1502       F  0.52318495  0.95004132  0.48589322    -0.20200
F1503       F  0.52734010  0.91960838  0.52883911    -0.20500
F1504       F  0.52127729  0.97263836  0.53449047    -0.23200
C1505       C  0.11412680  0.65521112  0.73850823    -0.06000
C1506       C  0.14927802  0.67032873  0.72084890    -0.00100
C1507       C  0.18556676  0.68385189  0.73685197    -0.08600
C1508       C  0.18566421  0.68389304  0.77010819    -0.06000
C1509       C  0.15098123  0.67079475  0.78790144    -0.00100
C1510       C  0.11436349  0.65547797  0.77201087    -0.08500
C1511       C  0.07625994  0.64178395  0.79027604     0.61800
H1512       H  0.08670120  0.64480898  0.72584706     0.12500
H1513       H  0.21333049  0.69531326  0.78262994     0.12500
C1514       C  0.22437169  0.69890869  0.71910283     0.62100
F1515       F  0.04457502  0.63108661  0.77033857    -0.23100
F1516       F  0.08037683  0.67192851  0.80980551    -0.20400
F1517       F  0.06769348  0.60951519  0.80842649    -0.20100
F1518       F  0.23684928  0.73589462  0.70729084    -0.20200
F1519       F  0.21958281  0.67351119  0.69440886    -0.20500
F1520       F  0.25379103  0.70180965  0.73861378    -0.23200
C1521       C  0.01861790  0.65890252  0.64247873    -0.06000
C1522       C  0.03967850  0.65905333  0.61542239    -0.00100
C1523       C  0.01994943  0.64710784  0.58591907    -0.08600
C1524       C  0.97852494  0.62867119  0.58551437    -0.06000
C1525       C  0.95660586  0.62255118  0.61351167    -0.00100
C1526       C  0.97706075  0.64099484  0.64199309    -0.08500
C1527       C  0.95527128  0.63821495  0.67252797     0.61800
H1528       H  0.03439960  0.66945015  0.66468728     0.12500
H1529       H  0.96269749  0.61554692  0.56367010     0.12500
C1530       C  0.04241145  0.65288142  0.55509064     0.62100
F1531       F  0.98068832  0.66309075  0.69579650    -0.23100
F1532       F  0.93697158  0.60024450  0.68367200    -0.20400
F1533       F  0.92731419  0.64862464  0.66729391    -0.20100
F1534       F  0.05541215  0.62653858  0.55285971    -0.20200
F1535       F  0.07457765  0.69091942  0.55390112    -0.20500
F1536       F  0.01889277  0.64712029  0.52904750    -0.23200
C1537       C  0.17178145  0.59702017  0.47637219    -0.06000
C1538       C  0.14104041  0.55795096  0.47377990    -0.00100
C1539       C  0.10942855  0.54275523  0.49566865    -0.08600
C1540       C  0.11007868  0.56759603  0.52024584    -0.06000
C1541       C  0.14143666  0.60687833  0.52335585    -0.00100
C1542       C  0.17310926  0.62194251  0.50081731    -0.08500
C1543       C  0.20945812  0.66328531  0.50276569     0.61800
H1544       H  0.19546868  0.60767360  0.45904196     0.12500
H1545       H  0.08649129  0.55622056  0.53767251     0.12500
C1546       C  0.07601272  0.50041750  0.49332934     0.62100
F1547       F  0.23692482  0.66992952  0.47924883    -0.23100
F1548       F  0.22810396  0.66885837  0.53156087    -0.20400
F1549       F  0.19849891  0.69095132  0.49923247    -0.20100
F1550       F  0.09098672  0.47578459  0.49601135    -0.20200
F1551       F  0.05758712  0.49410574  0.46432192    -0.20500
F1552       F  0.04802808  0.49106141  0.51697774    -0.23200
C1553       C  0.23115470  0.82836758  0.50406020    -0.06000
C1554       C  0.21928974  0.80195389  0.47823326    -0.00100
C1555       C  0.18548175  0.76392998  0.48202513    -0.08600
C1556       C  0.17050219  0.75053885  0.51256772    -0.06000
C1557       C  0.18752035  0.77465132  0.53917987    -0.00100
C1558       C  0.21448347  0.81533218  0.53455283    -0.08500
C1559       C  0.22487520  0.84550590  0.56073318     0.61800
H1560       H  0.25487656  0.85853761  0.50091823     0.12500
H1561       H  0.14832482  0.71980272  0.51607921     0.12500
C1562       C  0.16658267  0.73701185  0.45391128     0.62100
F1563       F  0.26506379  0.86633438  0.56565045    -0.23100
F1564       F  0.20606252  0.82850675  0.58898128    -0.20400
F1565       F  0.21342443  0.87161752  0.55178666    -0.20100
F1566       F  0.19058117  0.72333742  0.44319344    -0.20200
F1567       F  0.16140480  0.75787199  0.43033221    -0.20500
F1568       F  0.12991855  0.70490372  0.46141428    -0.23200
C1569       C  0.35617195  0.82730849  0.64688086    -0.06000
C1570       C  0.37273479  0.80357667  0.65143737    -0.00100
C1571       C  0.34773435  0.76399772  0.66055955    -0.08600
C1572       C  0.30693702  0.74725726  0.65711350    -0.06000
C1573       C  0.29054946  0.76940590  0.64667648    -0.00100
C1574       C  0.31503827  0.81075052  0.64452108    -0.08500
C1575       C  0.29841351  0.83669076  0.63707892     0.61800
H1576       H  0.37558953  0.85823323  0.64174316     0.12500
H1577       H  0.28782281  0.71582052  0.66058432     0.12500
C1578       C  0.36278295  0.73795107  0.67195410     0.62100
F1579       F  0.32744948  0.87622311  0.63689829    -0.23100
F1580       F  0.27059449  0.83146633  0.65975989    -0.20400
F1581       F  0.28092576  0.82677197  0.60757702    -0.20100
F1582       F  0.40097176  0.75984262  0.68340805    -0.20200
F1583       F  0.36154068  0.71396465  0.64731209    -0.20500
F1584       F  0.33909682  0.71449445  0.69645348    -0.23200
C1585       C  0.31113983  0.49407653  0.76843440    -0.06000
C1586       C  0.33704205  0.48473665  0.78315470    -0.00100
C1587       C  0.36122793  0.47593394  0.76370259    -0.08600
C1588       C  0.36003005  0.47905920  0.73053552    -0.06000
C1589       C  0.33456977  0.48897450  0.71568940    -0.00100
C1590       C  0.30903187  0.49604354  0.73515075    -0.08500
C1591       C  0.27994796  0.50626336  0.72141599     0.61800
H1592       H  0.29261387  0.50036430  0.78345054     0.12500
H1593       H  0.37924996  0.47347037  0.71580392     0.12500
C1594       C  0.38743858  0.46201456  0.77738796     0.62100
F1595       F  0.26027271  0.51444924  0.74481414    -0.23100
F1596       F  0.25170083  0.47481910  0.70372179    -0.20400
F1597       F  0.29980322  0.53920517  0.70252781    -0.20100
F1598       F  0.36585331  0.43151880  0.79825292    -0.20200
F1599       F  0.41919738  0.49278058  0.79298373    -0.20500
F1600       F  0.40229112  0.44818118  0.75404247    -0.23200
C1601       C  0.35834490  0.38927461  0.58097565    -0.06000
C1602       C  0.34334296  0.39445065  0.60975095    -0.00100
C1603       C  0.34136747  0.37167803  0.63612018    -0.08600
C1604       C  0.36028680  0.34945225  0.63416522    -0.06000
C1605       C  0.38032907  0.34900959  0.60650503    -0.00100
C1606       C  0.37628506  0.36644623  0.57870083    -0.08500
C1607       C  0.39054653  0.36079937  0.54662838     0.61800
H1608       H  0.35854452  0.40575577  0.56065054     0.12500
H1609       H  0.36254491  0.33520798  0.65509566     0.12500
C1610       C  0.32143329  0.37278389  0.66662261     0.62100
F1611       F  0.37799776  0.37476811  0.52223808    -0.23100
F1612       F  0.37526319  0.32110050  0.54132723    -0.20400
F1613       F  0.43132567  0.38032512  0.54550686    -0.20100
F1614       F  0.28263746  0.36155263  0.66044924    -0.20200
F1615       F  0.34094255  0.41044933  0.67922753    -0.20500
F1616       F  0.32129664  0.34748966  0.68901580    -0.23200
C1617       C  0.24020472  0.43208020  0.50776683    -0.06000
C1618       C  0.24064534  0.45778674  0.53129183    -0.00100
C1619       C  0.21384914  0.47147654  0.52863920    -0.08600
C1620       C  0.19197705  0.46369654  0.50066839    -0.06000
C1621       C  0.19629961  0.44341375  0.47505863    -0.00100
C1622       C  0.21806540  0.42434387  0.47958120    -0.08500
C1623       C  0.21874782  0.39573043  0.45578996     0.61800
H1624       H  0.25916591  0.41997261  0.51043063     0.12500
H1625       H  0.17454296  0.47735440  0.49720780     0.12500
C1626       C  0.20948573  0.49595288  0.55449148     0.62100
F1627       F  0.25729296  0.40798232  0.44737077    -0.23100
F1628       F  0.19762678  0.39180416  0.42867171    -0.20400
F1629       F  0.20227157  0.35910757  0.46964224    -0.20100
F1630       F  0.24295653  0.53300781  0.55555339    -0.20200
F1631       F  0.20372440  0.47764994  0.58336604    -0.20500
F1632       F  0.17747269  0.50049476  0.54925868    -0.23200
C1633       C  0.43248881  0.54140102  0.46710868    -0.06000
C1634       C  0.46449581  0.58024216  0.46845841    -0.00100
C1635       C  0.48380132  0.59601963  0.49777514    -0.08600
C1636       C  0.46596593  0.57520043  0.52558557    -0.06000
C1637       C  0.43002653  0.53924877  0.52458144    -0.00100
C1638       C  0.41509070  0.52027510  0.49494017    -0.08500
C1639       C  0.37934069  0.47914150  0.49168847     0.61800
H1640       H  0.41865110  0.52873527  0.44448343     0.12500
H1641       H  0.47762487  0.58943735  0.54831511     0.12500
C1642       C  0.51974835  0.63694531  0.50088526     0.62100
F1643       F  0.38802991  0.45734681  0.47084250    -0.23100
F1644       F  0.34794070  0.48126954  0.47986672    -0.20400
F1645       F  0.36830142  0.45955998  0.52026488    -0.20100
F1646       F  0.50753127  0.66340585  0.50722160    -0.20200
F1647       F  0.54225617  0.64767679  0.47344857    -0.20500
F1648       F  0.54352698  0.63852501  0.52544968    -0.23200
C1649       C  0.47349471  0.66182984  0.61011857    -0.06000
C1650       C  0.44009238  0.63898797  0.62906944    -0.00100
C1651       C  0.42894013  0.65799079  0.65202824    -0.08600
C1652       C  0.44768299  0.69952947  0.65149622    -0.06000
C1653       C  0.47861656  0.72214769  0.63019205    -0.00100
C1654       C  0.49374533  0.70323063  0.61107023    -0.08500
C1655       C  0.52991593  0.72677085  0.59050182     0.61800
H1656       H  0.48238555  0.64690499  0.59328163     0.12500
H1657       H  0.43697855  0.71444787  0.66654809     0.12500
C1658       C  0.39682964  0.63451973  0.67625160     0.62100
F1659       F  0.54197198  0.70319798  0.57583336    -0.23100
F1660       F  0.56080218  0.75454732  0.60890905    -0.20400
F1661       F  0.52136513  0.74539080  0.56735099    -0.20100
F1662       F  0.40742498  0.61229595  0.69397288    -0.20200
F1663       F  0.36141770  0.60965925  0.66134724    -0.20500
F1664       F  0.39119332  0.65875754  0.69679427    -0.23200
C1665       C  0.25919203  0.62430874  0.61026089    -0.06000
C1666       C  0.22146050  0.60496927  0.62405167    -0.00100
C1667       C  0.20759646  0.56788772  0.63838962    -0.08600
C1668       C  0.23147796  0.55071344  0.63672223    -0.06000
C1669       C  0.26825480  0.56906642  0.62084940    -0.00100
C1670       C  0.28241755  0.60705587  0.60728116    -0.08500
C1671       C  0.32055974  0.62929851  0.58783373     0.61800
H1672       H  0.26988681  0.65319901  0.60041735     0.12500
H1673       H  0.22097503  0.52210941  0.64705310     0.12500
C1674       C  0.16744088  0.54594836  0.65433870     0.62100
F1675       F  0.32562811  0.66359174  0.57493838    -0.23100
F1676       F  0.31987421  0.60604899  0.56278436    -0.20400
F1677       F  0.35300712  0.64003555  0.60675074    -0.20100
F1678       F  0.13829839  0.53857754  0.63265673    -0.20200
F1679       F  0.16613725  0.56835251  0.67920771    -0.20500
F1680       F  0.15950808  0.51025406  0.66641313    -0.23200
loop_ 
_geom_bond_atom_site_label_1 
_geom_bond_atom_site_label_2 
_geom_bond_distance 
_geom_bond_site_symmetry_2 
_ccdc_geom_bond_type 
O1          Cr19   1.959       .  S
O1            C9   1.258       .  A
O2          Cr19   2.002       .  S
O2            C3   1.260       .  A
C3            O4   1.262       .  A
C3         C1618   1.492       .  S
O4          Cr20   2.008       .  S
O5          Cr20   2.057       .  S
O5            C6   1.279       .  A
C6            O7   1.259       .  A
C6         C1602   1.494       .  S
O7          Cr21   1.959       .  S
O8          Cr21   2.030       .  S
O8            C9   1.273       .  A
C9         C1637   1.472       .  S
O10         Cr19   2.012       .  S
O10          C18   1.263       .  A
O11         Cr19   1.945       .  S
O11          C12   1.253       .  A
C12          O13   1.281       .  A
C12        C1669   1.503       .  S
O13         Cr20   2.062       .  S
O14         Cr20   1.981       .  S
O14          C15   1.257       .  A
C15          O16   1.267       .  A
C15        C1589   1.504       .  S
O16         Cr21   2.010       .  S
O17         Cr21   2.001       .  S
O17          C18   1.260       .  A
C18        C1650   1.485       .  S
Cr19         O22   1.757       .  S
Cr20         O22   1.774       .  S
Cr21         O22   1.770       .  S
O23         Cr41   1.958       .  S
O23          C31   1.255       .  A
O24         Cr41   2.005       .  S
O24          C25   1.260       .  A
C25          O26   1.259       .  A
C25        C1557   1.481       .  S
O26         Cr42   2.004       .  S
O27         Cr42   2.021       .  S
O27          C28   1.269       .  A
C28          O29   1.262       .  A
C28        C1522   1.483       .  S
O29         Cr43   1.973       .  S
O30         Cr43   2.041       .  S
O30          C31   1.275       .  A
C31        C1541   1.488       .  S
O32         Cr41   1.999       .  S
O32          C40   1.263       .  A
O33         Cr41   1.936       .  S
O33          C34   1.255       .  A
C34          O35   1.275       .  A
C34        C1573   1.480       .  S
O35         Cr42   2.038       .  S
O36         Cr42   1.965       .  S
O36          C37   1.257       .  A
C37          O38   1.270       .  A
C37        C1506   1.482       .  S
O38         Cr43   2.025       .  S
O39         Cr43   2.008       .  S
O39          C40   1.263       .  A
C40        C1666   1.496       .  S
Cr41         O44   1.754       .  S
Cr42         O44   1.773       .  S
Cr43         O44   1.772       .  S
O45         Cr63   1.994       .  S
O45          C53   1.265       .  A
O46         Cr63   1.970       .  S
O46          C47   1.257       .  A
C47          O48   1.273       .  A
C47        C1474   1.510       .  S
O48         Cr64   2.036       .  S
O49         Cr64   2.003       .  S
O49          C50   1.261       .  A
C50          O51   1.255       .  A
C50        C1458   1.473       .  S
O51         Cr65   1.979       .  S
O52         Cr65   2.007       .  S
O52          C53   1.265       .  A
C53        C1490   1.480       .  S
O54         Cr63   1.981       .  S
O54          C62   1.262       .  A
O55         Cr63   1.997       .  S
O55          C56   1.261       .  A
C56          O57   1.263       .  A
C56        C1653   1.486       .  S
O57         Cr64   2.004       .  S
O58         Cr64   2.036       .  S
O58          C59   1.276       .  A
C59          O60   1.262       .  A
C59        C1442   1.487       .  S
O60         Cr65   1.971       .  S
O61         Cr65   1.994       .  S
O61          C62   1.262       .  A
C62        C1570   1.482       .  S
Cr63         O66   1.765       .  S
Cr64         O66   1.779       .  S
Cr65         O66   1.781       .  S
O67         Cr85   1.973       .  S
O67          C75   1.261       .  A
O68         Cr85   1.999       .  S
O68          C69   1.263       .  A
C69          O70   1.266       .  A
C69        C1621   1.483       .  S
O70         Cr86   2.009       .  S
O71         Cr86   2.028       .  S
O71          C72   1.267       .  A
C72          O73   1.258       .  A
C72        C1394   1.489       .  S
O73         Cr87   1.983       .  S
O74         Cr87   2.015       .  S
O74          C75   1.268       .  A
C75        C1538   1.472       .  S
O76         Cr85   1.999       .  S
O76          C84   1.262       .  A
O77         Cr85   1.974       .  S
O77          C78   1.260       .  A
C78          O79   1.271       .  A
C78        C1426   1.491       .  S
O79         Cr86   2.037       .  S
O80         Cr86   1.969       .  S
O80          C81   1.263       .  A
C81          O82   1.271       .  A
C81        C1381   1.493       .  S
O82         Cr87   2.026       .  S
O83         Cr87   2.001       .  S
O83          C84   1.262       .  A
C84        C1410   1.490       .  S
Cr85         O88   1.763       .  S
Cr86         O88   1.783       .  S
Cr87         O88   1.780       .  S
O89        Cr107   1.969       .  S
O89          C97   1.264       .  A
O90        Cr107   1.987       .  S
O90          C91   1.255       .  A
C91          O92   1.261       .  A
C91        C1554   1.493       .  S
O92        Cr108   2.025       .  S
O93        Cr108   2.047       .  S
O93          C94   1.277       .  A
C94          O95   1.258       .  A
C94        C1349   1.494       .  S
O95        Cr109   1.964       .  S
O96        Cr109   2.045       .  S
O96          C97   1.278       .  A
C97        C1493   1.502       .  S
O98        Cr107   1.989       .  S
O98         C106   1.252       .  A
O99        Cr107   1.951       .  S
O99         C100   1.262       .  A
C100        O101   1.283       .  A
C100       C1413   1.513       .  S
O101       Cr108   2.076       .  S
O102       Cr108   1.985       .  S
O102        C103   1.259       .  A
C103        O104   1.269       .  A
C103       C1333   1.508       .  S
O104       Cr109   2.020       .  S
O105       Cr109   2.001       .  S
O105        C106   1.259       .  A
C106       C1365   1.490       .  S
Cr107       O110   1.764       .  S
Cr108       O110   1.782       .  S
Cr109       O110   1.776       .  S
O111       Cr129   1.959       .  S
O111        C119   1.260       .  A
O112       Cr129   1.981       .  S
O112        C113   1.260       .  A
C113        O114   1.266       .  A
C113       C1477   1.494       .  S
O114       Cr130   2.019       .  S
O115       Cr130   2.040       .  S
O115        C116   1.273       .  A
C116        O117   1.257       .  A
C116       C1314   1.482       .  S
O117       Cr131   1.953       .  S
O118       Cr131   2.025       .  S
O118        C119   1.271       .  A
C119       C1634   1.474       .  S
O120       Cr129   1.992       .  S
O120        C128   1.258       .  A
O121       Cr129   1.957       .  S
O121        C122   1.259       .  A
C122        O123   1.274       .  A
C122       C1362   1.488       .  S
O123       Cr130   2.048       .  S
O124       Cr130   1.982       .  S
O124        C125   1.261       .  A
C125        O126   1.266       .  A
C125       C1301   1.499       .  S
O126       Cr131   2.006       .  S
O127       Cr131   2.002       .  S
O127        C128   1.259       .  A
C128       C1429   1.477       .  S
Cr129       O132   1.752       .  S
Cr130       O132   1.785       .  S
Cr131       O132   1.771       .  S
O133       Cr151   2.024       .  S
O133        C141   1.267       .  A
O134       Cr151   1.987       .  S
O134        C135   1.263       .  A
C135        O136   1.264       .  A
C135       C1317   1.488       .  S
O136       Cr152   2.019       .  S
O137       Cr152   2.025       .  S
O137        C138   1.271       .  A
C138        O139   1.266       .  A
C138       C1234   1.503       .  S
O139       Cr153   2.010       .  S
O140       Cr153   1.960       .  S
O140        C141   1.256       .  A
C141       C1250   1.470       .  S
O142       Cr151   2.006       .  S
O142        C150   1.263       .  A
O143       Cr151   2.012       .  S
O143        C144   1.268       .  A
C144        O145   1.265       .  A
C144       C1218   1.507       .  S
O145       Cr152   1.991       .  S
O146       Cr152   2.006       .  S
O146        C147   1.264       .  A
C147        O148   1.261       .  A
C147       C1282   1.481       .  S
O148       Cr153   1.974       .  S
O149       Cr153   2.010       .  S
O149        C150   1.263       .  A
C150       C1266   1.493       .  S
Cr151       O154   1.781       .  S
Cr152       O154   1.785       .  S
Cr153       O154   1.764       .  S
O155       Cr173   2.035       .  S
O155        C163   1.276       .  A
O156       Cr173   1.968       .  S
O156        C157   1.255       .  A
C157        O158   1.271       .  A
C157       C1605   1.497       .  S
O158       Cr174   2.043       .  S
O159       Cr174   2.014       .  S
O159        C160   1.264       .  A
C160        O161   1.260       .  A
C160       C1170   1.485       .  S
O161       Cr175   1.997       .  S
O162       Cr175   1.953       .  S
O162        C163   1.256       .  A
C163       C1253   1.492       .  S
O164       Cr173   1.990       .  S
O164        C172   1.256       .  A
O165       Cr173   2.027       .  S
O165        C166   1.272       .  A
C166        O167   1.262       .  A
C166       C1154   1.502       .  S
O167       Cr174   1.965       .  S
O168       Cr174   2.054       .  S
O168        C169   1.279       .  A
C169        O170   1.262       .  A
C169       C1205   1.487       .  S
O170       Cr175   1.967       .  S
O171       Cr175   2.001       .  S
O171        C172   1.258       .  A
C172       C1189   1.479       .  S
Cr173       O176   1.773       .  S
Cr174       O176   1.777       .  S
Cr175       O176   1.761       .  S
O177       Cr195   2.009       .  S
O177        C185   1.262       .  A
O178       Cr195   1.996       .  S
O178        C179   1.262       .  A
C179        O180   1.269       .  A
C179       C1346   1.495       .  S
O180       Cr196   2.020       .  S
O181       Cr196   2.030       .  S
O181        C182   1.273       .  A
C182        O183   1.265       .  A
C182       C1173   1.484       .  S
O183       Cr197   1.974       .  S
O184       Cr197   1.974       .  S
O184        C185   1.256       .  A
C185       C1125   1.477       .  S
O186       Cr195   2.022       .  S
O186        C194   1.270       .  A
O187       Cr195   1.964       .  S
O187        C188   1.262       .  A
C188        O189   1.265       .  A
C188       C1109   1.470       .  S
O189       Cr196   1.999       .  S
O190       Cr196   2.030       .  S
O190        C191   1.264       .  A
C191        O192   1.253       .  A
C191       C1269   1.492       .  S
O192       Cr197   1.985       .  S
O193       Cr197   1.981       .  S
O193        C194   1.262       .  A
C194       C1138   1.496       .  S
Cr195       O198   1.777       .  S
Cr196       O198   1.774       .  S
Cr197       O198   1.762       .  S
O199       Cr217   2.017       .  S
O199        C207   1.266       .  A
O200       Cr217   1.954       .  S
O200        C201   1.257       .  A
C201        O202   1.274       .  A
C201       C1525   1.485       .  S
O202       Cr218   2.047       .  S
O203       Cr218   2.022       .  S
O203        C204   1.269       .  A
C204        O205   1.264       .  A
C204       C1237   1.503       .  S
O205       Cr219   1.998       .  S
O206       Cr219   1.971       .  S
O206        C207   1.260       .  A
C207       C1074   1.482       .  S
O208       Cr217   1.979       .  S
O208        C216   1.256       .  A
O209       Cr217   1.994       .  S
O209        C210   1.264       .  A
C210        O211   1.262       .  A
C210       C1061   1.508       .  S
O211       Cr218   2.000       .  S
O212       Cr218   2.034       .  S
O212        C213   1.273       .  A
C213        O214   1.263       .  A
C213       C1186   1.490       .  S
O214       Cr219   1.970       .  S
O215       Cr219   2.013       .  S
O215        C216   1.265       .  A
C216       C1093   1.473       .  S
Cr217       O220   1.773       .  S
Cr218       O220   1.780       .  S
Cr219       O220   1.762       .  S
O221       Cr239   1.991       .  S
O221        C229   1.261       .  A
O222       Cr239   1.986       .  S
O222        C223   1.262       .  A
C223        O224   1.270       .  A
C223       C1397   1.480       .  S
O224       Cr240   2.010       .  S
O225       Cr240   2.042       .  S
O225        C226   1.274       .  A
C226        O227   1.263       .  A
C226       C1045   1.490       .  S
O227       Cr241   1.977       .  S
O228       Cr241   1.990       .  S
O228        C229   1.262       .  A
C229       C1077   1.467       .  S
O230       Cr239   2.009       .  S
O230        C238   1.264       .  A
O231       Cr239   1.973       .  S
O231        C232   1.257       .  A
C232        O233   1.269       .  A
C232       C1029   1.497       .  S
O233       Cr240   2.014       .  S
O234       Cr240   2.018       .  S
O234        C235   1.263       .  A
C235        O236   1.254       .  A
C235       C1141   1.483       .  S
O236       Cr241   1.961       .  S
O237       Cr241   1.973       .  S
O237        C238   1.256       .  A
C238       C1285   1.472       .  S
Cr239       O242   1.772       .  S
Cr240       O242   1.775       .  S
Cr241       O242   1.760       .  S
O243       Cr261   2.025       .  S
O243        C251   1.270       .  A
O244       Cr261   1.976       .  S
O244        C245   1.254       .  A
C245        O246   1.261       .  A
C245       C1461   1.481       .  S
O246       Cr262   2.008       .  S
O247       Cr262   1.995       .  S
O247        C248   1.265       .  A
C248        O249   1.269       .  A
C248       C1042   1.479       .  S
O249       Cr263   2.013       .  S
O250       Cr263   1.953       .  S
O250        C251   1.255       .  A
C251       C1122   1.470       .  S
O252       Cr261   1.989       .  S
O252        C260   1.258       .  A
O253       Cr261   2.036       .  S
O253        C254   1.275       .  A
C254        O255   1.263       .  A
C254       C1010   1.502       .  S
O255       Cr262   1.949       .  S
O256       Cr262   2.017       .  S
O256        C257   1.267       .  A
C257        O258   1.256       .  A
C257       C1090   1.480       .  S
O258       Cr263   1.974       .  S
O259       Cr263   2.003       .  S
O259        C260   1.263       .  A
C260       C1202   1.484       .  S
Cr261       O264   1.775       .  S
Cr262       O264   1.778       .  S
Cr263       O264   1.759       .  S
O265       Cr283   1.955       .  S
O265        C273   1.260       .  A
O266       Cr283   1.987       .  S
O266        C267   1.261       .  A
C267        O268   1.264       .  A
C267        C946   1.492       .  S
O268       Cr284   2.017       .  S
O269       Cr284   2.035       .  S
O269        C270   1.272       .  A
C270        O271   1.260       .  A
C270        C930   1.487       .  S
O271       Cr285   1.967       .  S
O272       Cr285   2.048       .  S
O272        C273   1.276       .  A
C273        C962   1.493       .  S
O274       Cr283   2.007       .  S
O274        C282   1.261       .  A
O275       Cr283   1.955       .  S
O275        C276   1.257       .  A
C276        O277   1.275       .  A
C276        C994   1.491       .  S
O277       Cr284   2.037       .  S
O278       Cr284   1.981       .  S
O278        C279   1.258       .  A
C279        O280   1.269       .  A
C279       C1221   1.506       .  S
O280       Cr285   2.012       .  S
O281       Cr285   2.007       .  S
O281        C282   1.257       .  A
C282        C981   1.489       .  S
Cr283       O286   1.758       .  S
Cr284       O286   1.780       .  S
Cr285       O286   1.772       .  S
O287       Cr305   2.004       .  S
O287        C295   1.262       .  A
O288       Cr305   1.963       .  S
O288        C289   1.255       .  A
C289        O290   1.270       .  A
C289        C882   1.485       .  S
O290       Cr306   2.039       .  S
O291       Cr306   1.990       .  S
O291        C292   1.262       .  A
C292        O293   1.261       .  A
C292        C869   1.466       .  S
O293       Cr307   1.989       .  S
O294       Cr307   2.000       .  S
O294        C295   1.260       .  A
C295        C965   1.478       .  S
O296       Cr305   1.968       .  S
O296        C304   1.260       .  A
O297       Cr305   2.011       .  S
O297        C298   1.265       .  A
C298        O299   1.263       .  A
C298        C914   1.481       .  S
O299       Cr306   1.998       .  S
O300       Cr306   2.026       .  S
O300        C301   1.272       .  A
C301        O302   1.263       .  A
C301       C1157   1.483       .  S
O302       Cr307   1.975       .  S
O303       Cr307   2.019       .  S
O303        C304   1.269       .  A
C304        C901   1.480       .  S
Cr305       O308   1.758       .  S
Cr306       O308   1.775       .  S
Cr307       O308   1.769       .  S
O309       Cr327   2.003       .  S
O309        C317   1.269       .  A
O310       Cr327   1.985       .  S
O310        C311   1.261       .  A
C311        O312   1.267       .  A
C311        C837   1.489       .  S
O312       Cr328   2.020       .  S
O313       Cr328   2.003       .  S
O313        C314   1.260       .  A
C314        O315   1.259       .  A
C314        C802   1.482       .  S
O315       Cr329   2.000       .  S
O316       Cr329   1.995       .  S
O316        C317   1.267       .  A
C317        C821   1.475       .  S
O318       Cr327   1.986       .  S
O318        C326   1.253       .  A
O319       Cr327   1.983       .  S
O319        C320   1.261       .  A
C320        O321   1.260       .  A
C320        C850   1.483       .  S
O321       Cr328   1.990       .  S
O322       Cr328   2.024       .  S
O322        C323   1.273       .  A
C323        O324   1.266       .  A
C323       C1013   1.487       .  S
O324       Cr329   1.980       .  S
O325       Cr329   2.011       .  S
O325        C326   1.259       .  A
C326        C917   1.478       .  S
Cr327       O330   1.769       .  S
Cr328       O330   1.786       .  S
Cr329       O330   1.787       .  S
O331       Cr349   1.967       .  S
O331        C339   1.261       .  A
O332       Cr349   1.996       .  S
O332        C333   1.259       .  A
C333        O334   1.266       .  A
C333        C949   1.496       .  S
O334       Cr350   2.020       .  S
O335       Cr350   2.037       .  S
O335        C336   1.273       .  A
C336        O337   1.258       .  A
C336        C770   1.489       .  S
O337       Cr351   1.961       .  S
O338       Cr351   2.022       .  S
O338        C339   1.268       .  A
C339        C786   1.475       .  S
O340       Cr349   1.998       .  S
O340        C348   1.260       .  A
O341       Cr349   1.973       .  S
O341        C342   1.264       .  A
C342        O343   1.272       .  A
C342        C898   1.494       .  S
O343       Cr350   2.021       .  S
O344       Cr350   1.986       .  S
O344        C345   1.261       .  A
C345        O346   1.263       .  A
C345       C1058   1.508       .  S
O346       Cr351   2.005       .  S
O347       Cr351   1.996       .  S
O347        C348   1.258       .  A
C348        C853   1.476       .  S
Cr349       O352   1.762       .  S
Cr350       O352   1.776       .  S
Cr351       O352   1.777       .  S
O353       Cr371   2.004       .  S
O353        C361   1.264       .  A
O354       Cr371   1.958       .  S
O354        C355   1.253       .  A
C355        O356   1.272       .  A
C355        C885   1.492       .  S
O356       Cr372   2.041       .  S
O357       Cr372   2.011       .  S
O357        C358   1.268       .  A
C358        O359   1.261       .  A
C358        C741   1.483       .  S
O359       Cr373   1.993       .  S
O360       Cr373   1.996       .  S
O360        C361   1.263       .  A
C361        C818   1.482       .  S
O362       Cr371   1.968       .  S
O362        C370   1.255       .  A
O363       Cr371   1.996       .  S
O363        C364   1.258       .  A
C364        O365   1.262       .  A
C364        C978   1.482       .  S
O365       Cr372   2.008       .  S
O366       Cr372   2.005       .  S
O366        C367   1.269       .  A
C367        O368   1.260       .  A
C367       C1106   1.467       .  S
O368       Cr373   1.960       .  S
O369       Cr373   2.019       .  S
O369        C370   1.268       .  A
C370        C757   1.488       .  S
Cr371       O374   1.758       .  S
Cr372       O374   1.780       .  S
Cr373       O374   1.772       .  S
O375       Cr393   1.963       .  S
O375        C383   1.266       .  A
O376       Cr393   1.973       .  S
O376        C377   1.250       .  A
C377        O378   1.263       .  A
C377        C834   1.484       .  S
O378       Cr394   2.031       .  S
O379       Cr394   2.013       .  S
O379        C380   1.268       .  A
C380        O381   1.260       .  A
C380        C725   1.478       .  S
O381       Cr395   1.964       .  S
O382       Cr395   2.023       .  S
O382        C383   1.274       .  A
C383        C789   1.480       .  S
O384       Cr393   1.971       .  S
O384        C392   1.249       .  A
O385       Cr393   1.965       .  S
O385        C386   1.265       .  A
C386        O387   1.276       .  A
C386        C754   1.490       .  S
O387       Cr394   2.030       .  S
O388       Cr394   1.983       .  S
O388        C389   1.260       .  A
C389        O390   1.264       .  A
C389       C1026   1.496       .  S
O390       Cr395   1.991       .  S
O391       Cr395   2.023       .  S
O391        C392   1.258       .  A
C392        C997   1.481       .  S
Cr393       O396   1.756       .  S
Cr394       O396   1.772       .  S
Cr395       O396   1.773       .  S
O397       Cr415   2.015       .  S
O397        C405   1.266       .  A
O398       Cr415   1.958       .  S
O398        C399   1.260       .  A
C399        O400   1.272       .  A
C399        C866   1.478       .  S
O400       Cr416   2.028       .  S
O401       Cr416   2.021       .  S
O401        C402   1.263       .  A
C402        O403   1.260       .  A
C402        C658   1.499       .  S
O403       Cr417   2.002       .  S
O404       Cr417   1.981       .  S
O404        C405   1.266       .  A
C405        C674   1.485       .  S
O406       Cr415   2.000       .  S
O406        C414   1.261       .  A
O407       Cr415   1.997       .  S
O407        C408   1.260       .  A
C408        O409   1.262       .  A
C408       C1586   1.499       .  S
O409       Cr416   1.995       .  S
O410       Cr416   2.034       .  S
O410        C411   1.274       .  A
C411        O412   1.261       .  A
C411        C706   1.483       .  S
O412       Cr417   1.972       .  S
O413       Cr417   1.992       .  S
O413        C414   1.262       .  A
C414        C690   1.484       .  S
Cr415       O418   1.782       .  S
Cr416       O418   1.781       .  S
Cr417       O418   1.763       .  S
O419       Cr437   2.020       .  S
O419        C427   1.267       .  A
O420       Cr437   1.960       .  S
O420        C421   1.257       .  A
C421        O422   1.270       .  A
C421        C722   1.489       .  S
O422       Cr438   2.031       .  S
O423       Cr438   1.989       .  S
O423        C424   1.261       .  A
C424        O425   1.269       .  A
C424        C661   1.485       .  S
O425       Cr439   2.018       .  S
O426       Cr439   1.969       .  S
O426        C427   1.259       .  A
C427        C610   1.474       .  S
O428       Cr437   1.980       .  S
O428        C436   1.258       .  A
O429       Cr437   2.016       .  S
O429        C430   1.268       .  A
C430        O431   1.260       .  A
C430       C1378   1.487       .  S
O431       Cr438   1.972       .  S
O432       Cr438   2.039       .  S
O432        C433   1.271       .  A
C433        O434   1.256       .  A
C433        C645   1.492       .  S
O434       Cr439   1.966       .  S
O435       Cr439   2.009       .  S
O435        C436   1.266       .  A
C436        C629   1.478       .  S
Cr437       O440   1.774       .  S
Cr438       O440   1.778       .  S
Cr439       O440   1.758       .  S
O441       Cr459   2.045       .  S
O441        C449   1.275       .  A
O442       Cr459   1.972       .  S
O442        C443   1.259       .  A
C443        O444   1.270       .  A
C443        C773   1.496       .  S
O444       Cr460   2.034       .  S
O445       Cr460   2.004       .  S
O445        C446   1.264       .  A
C446        O447   1.262       .  A
C446        C578   1.481       .  S
O447       Cr461   2.004       .  S
O448       Cr461   1.956       .  S
O448        C449   1.254       .  A
C449        C613   1.494       .  S
O450       Cr459   1.986       .  S
O450        C458   1.256       .  A
O451       Cr459   2.025       .  S
O451        C452   1.271       .  A
C452        O453   1.263       .  A
C452       C1509   1.484       .  S
O453       Cr460   1.971       .  S
O454       Cr460   2.052       .  S
O454        C455   1.276       .  A
C455        O456   1.257       .  A
C455        C597   1.492       .  S
O456       Cr461   1.953       .  S
O457       Cr461   2.005       .  S
O457        C458   1.264       .  A
C458        C709   1.474       .  S
Cr459       O462   1.771       .  S
Cr460       O462   1.771       .  S
Cr461       O462   1.756       .  S
O463       Cr481   2.033       .  S
O463        C471   1.272       .  A
O464       Cr481   1.958       .  S
O464        C465   1.255       .  A
C465        O466   1.274       .  A
C465        C805   1.484       .  S
O466       Cr482   2.050       .  S
O467       Cr482   2.014       .  S
O467        C468   1.269       .  A
C468        O469   1.267       .  A
C468        C546   1.498       .  S
O469       Cr483   2.023       .  S
O470       Cr483   1.960       .  S
O470        C471   1.258       .  A
C471        C565   1.482       .  S
O472       Cr481   1.988       .  S
O472        C480   1.257       .  A
O473       Cr481   2.024       .  S
O473        C474   1.269       .  A
C474        O475   1.264       .  A
C474       C1445   1.509       .  S
O475       Cr482   1.981       .  S
O476       Cr482   2.052       .  S
O476        C477   1.274       .  A
C477        O478   1.250       .  A
C477        C693   1.493       .  S
O478       Cr483   1.956       .  S
O479       Cr483   2.013       .  S
O479        C480   1.265       .  A
C480        C594   1.480       .  S
Cr481       O484   1.767       .  S
Cr482       O484   1.777       .  S
Cr483       O484   1.749       .  S
O485       Cr503   2.028       .  S
O485        C493   1.272       .  A
O486       Cr503   1.966       .  S
O486        C487   1.261       .  A
C487        O488   1.273       .  A
C487        C738   1.486       .  S
O488       Cr504   2.030       .  S
O489       Cr504   2.020       .  S
O489        C490   1.259       .  A
C490        O491   1.252       .  A
C490        C581   1.490       .  S
O491       Cr505   1.989       .  S
O492       Cr505   1.967       .  S
O492        C493   1.267       .  A
C493        C562   1.482       .  S
O494       Cr503   2.019       .  S
O494        C502   1.261       .  A
O495       Cr503   2.006       .  S
O495        C496   1.263       .  A
C496        O497   1.262       .  A
C496       C1330   1.507       .  S
O497       Cr504   1.991       .  S
O498       Cr504   2.055       .  S
O498        C499   1.280       .  A
C499        O500   1.262       .  A
C499        C626   1.496       .  S
O500       Cr505   1.937       .  S
O501       Cr505   1.975       .  S
O501        C502   1.255       .  A
C502        C530   1.485       .  S
Cr503       O506   1.780       .  S
Cr504       O506   1.782       .  S
Cr505       O506   1.762       .  S
O507       Cr525   2.031       .  S
O507        C515   1.271       .  A
O508       Cr525   1.953       .  S
O508        C509   1.256       .  A
C509        O510   1.276       .  A
C509        C933   1.485       .  S
O510       Cr526   2.054       .  S
O511       Cr526   2.012       .  S
O511        C512   1.268       .  A
C512        O513   1.265       .  A
C512        C549   1.495       .  S
O513       Cr527   2.014       .  S
O514       Cr527   1.956       .  S
O514        C515   1.258       .  A
C515        C677   1.479       .  S
O516       Cr525   1.989       .  S
O516        C524   1.255       .  A
O517       Cr525   2.010       .  S
O517        C518   1.265       .  A
C518        O519   1.262       .  A
C518       C1298   1.496       .  S
O519       Cr526   1.977       .  S
O520       Cr526   2.055       .  S
O520        C521   1.275       .  A
C521        O522   1.251       .  A
C521        C533   1.495       .  S
O522       Cr527   1.947       .  S
O523       Cr527   2.016       .  S
O523        C524   1.266       .  A
C524        C642   1.480       .  S
Cr525       O528   1.772       .  S
Cr526       O528   1.777       .  S
Cr527       O528   1.749       .  S
C529        C530   1.398       .  A
C529        C534   1.396       .  A
C529        H536   1.083       .  S
C530        C531   1.415       .  A
C531        C532   1.421       .  A
C531        C538   1.514       .  S
C532        C533   1.413       .  A
C532        H537   1.083       .  S
C533        C534   1.429       .  A
C534        C535   1.529       .  S
C535        F539   1.385       .  S
C535        F540   1.382       .  S
C535        F541   1.383       .  S
C538        F542   1.383       .  S
C538        F543   1.383       .  S
C538        F544   1.384       .  S
C545        C546   1.404       .  A
C545        C550   1.417   1_556  A
C545        H552   1.083   1_556  S
C546        C547   1.421       .  A
C547        C548   1.416       .  A
C547        C554   1.514       .  S
C548        C549   1.403   1_556  A
C548        H553   1.084       .  S
C549        C550   1.419       .  A
C550        C551   1.514       .  S
C551        F555   1.384       .  S
C551        F556   1.383       .  S
C551        F557   1.382       .  S
C554        F558   1.383       .  S
C554        F559   1.379       .  S
C554        F560   1.383       .  S
C561        C562   1.399       .  A
C561        C566   1.402   1_554  A
C561        H568   1.083       .  S
C562        C563   1.422       .  A
C563        C564   1.408       .  A
C563        C570   1.517       .  S
C564        C565   1.403   1_554  A
C564        H569   1.084       .  S
C565        C566   1.415       .  A
C566        C567   1.506       .  S
C567        F571   1.383       .  S
C567        F572   1.380       .  S
C567        F573   1.382       .  S
C570        F574   1.380       .  S
C570        F575   1.383       .  S
C570        F576   1.384       .  S
C577        C578   1.400       .  A
C577        C582   1.409   1_556  A
C577        H584   1.084       .  S
C578        C579   1.415       .  A
C579        C580   1.413   1_556  A
C579        C586   1.513       .  S
C580        C581   1.405       .  A
C580        H585   1.084       .  S
C581        C582   1.420       .  A
C582        C583   1.511       .  S
C583        F587   1.385       .  S
C583        F588   1.383       .  S
C583        F589   1.383       .  S
C586        F590   1.384       .  S
C586        F591   1.383       .  S
C586        F592   1.383       .  S
C593        C594   1.396       .  A
C593        C598   1.400       .  A
C593        H600   1.085       .  S
C594        C595   1.421       .  A
C595        C596   1.413       .  A
C595        C602   1.512       .  S
C596        C597   1.404       .  A
C596        H601   1.084       .  S
C597        C598   1.419       .  A
C598        C599   1.508       .  S
C599        F603   1.384       .  S
C599        F604   1.382       .  S
C599        F605   1.382       .  S
C602        F606   1.383       .  S
C602        F607   1.381       .  S
C602        F608   1.381       .  S
C609        C610   1.395       .  A
C609        C614   1.402       .  A
C609        H616   1.084       .  S
C610        C611   1.411       .  A
C611        C612   1.413   1_554  A
C611        C618   1.515       .  S
C612        C613   1.410       .  A
C612        H617   1.083       .  S
C613        C614   1.431   1_556  A
C614        C615   1.526   1_554  S
C615        F619   1.385   1_556  S
C615        F620   1.383   1_556  S
C615        F621   1.383       .  S
C618        F622   1.383       .  S
C618        F623   1.381       .  S
C618        F624   1.384   1_554  S
C625        C626   1.408       .  A
C625        C630   1.397       .  A
C625        H632   1.082       .  S
C626        C627   1.419       .  A
C627        C628   1.415       .  A
C627        C634   1.513       .  S
C628        C629   1.407       .  A
C628        H633   1.083       .  S
C629        C630   1.411       .  A
C630        C631   1.515       .  S
C631        F635   1.385       .  S
C631        F636   1.380       .  S
C631        F637   1.380       .  S
C634        F638   1.374       .  S
C634        F639   1.383       .  S
C634        F640   1.385       .  S
C641        C642   1.399       .  A
C641        C646   1.409       .  A
C641        H648   1.080       .  S
C642        C643   1.410       .  A
C643        C644   1.408       .  A
C643        C650   1.516       .  S
C644        C645   1.408       .  A
C644        H649   1.079       .  S
C645        C646   1.419       .  A
C646        C647   1.510       .  S
C647        F651   1.385       .  S
C647        F652   1.378       .  S
C647        F653   1.383       .  S
C650        F654   1.377       .  S
C650        F655   1.383       .  S
C650        F656   1.384       .  S
C657        C658   1.401       .  A
C657        C662   1.408   1_556  A
C657        H664   1.073       .  S
C658        C659   1.414   1_556  A
C659        C660   1.413       .  A
C659        C666   1.502       .  S
C660        C661   1.403       .  A
C660        H665   1.079       .  S
C661        C662   1.413       .  A
C662        C663   1.515       .  S
C663        F667   1.384   1_554  S
C663        F668   1.381   1_554  S
C663        F669   1.381       .  S
C666        F670   1.373   1_554  S
C666        F671   1.384   1_554  S
C666        F672   1.385       .  S
C673        C674   1.400       .  A
C673        C678   1.402   1_556  A
C673        H680   1.075       .  S
C674        C675   1.418       .  A
C675        C676   1.406   1_556  A
C675        C682   1.515       .  S
C676        C677   1.404       .  A
C676        H681   1.084       .  S
C677        C678   1.414       .  A
C678        C679   1.509       .  S
C679        F683   1.385       .  S
C679        F684   1.378       .  S
C679        F685   1.383       .  S
C682        F686   1.382       .  S
C682        F687   1.383       .  S
C682        F688   1.385       .  S
C689        C690   1.398       .  A
C689        C694   1.398       .  A
C689        H696   1.083       .  S
C690        C691   1.416       .  A
C691        C692   1.417       .  A
C691        C698   1.515       .  S
C692        C693   1.410       .  A
C692        H697   1.083       .  S
C693        C694   1.430       .  A
C694        C695   1.528       .  S
C695        F699   1.385       .  S
C695        F700   1.381       .  S
C695        F701   1.383       .  S
C698        F702   1.383       .  S
C698        F703   1.383       .  S
C698        F704   1.384       .  S
C705        C706   1.404       .  A
C705        C710   1.411       .  A
C705        H712   1.084       .  S
C706        C707   1.413       .  A
C707        C708   1.399       .  A
C707        C714   1.500       .  S
C708        C709   1.396       .  A
C708        H713   1.084       .  S
C709        C710   1.418       .  A
C710        C711   1.511       .  S
C711        F715   1.383       .  S
C711        F716   1.381       .  S
C711        F717   1.381       .  S
C714        F718   1.381       .  S
C714        F719   1.383       .  S
C714        F720   1.384       .  S
C721        C722   1.406       .  A
C721        C726   1.400   1_455  A
C721        H728   1.084       .  S
C722        C723   1.422       .  A
C723        C724   1.412   1_455  A
C723        C730   1.516       .  S
C724        C725   1.402       .  A
C724        H729   1.083       .  S
C725        C726   1.415       .  A
C726        C727   1.519       .  S
C727        F731   1.384       .  S
C727        F732   1.383       .  S
C727        F733   1.383       .  S
C730        F734   1.382       .  S
C730        F735   1.383       .  S
C730        F736   1.385       .  S
C737        C738   1.402       .  A
C737        C742   1.413   1_565  A
C737        H744   1.083       .  S
C738        C739   1.420       .  A
C739        C740   1.407   1_565  A
C739        C746   1.516       .  S
C740        C741   1.400       .  A
C740        H745   1.085       .  S
C741        C742   1.420       .  A
C742        C743   1.514       .  S
C743        F747   1.385       .  S
C743        F748   1.383       .  S
C743        F749   1.379       .  S
C746        F750   1.383       .  S
C746        F751   1.382       .  S
C746        F752   1.384       .  S
C753        C754   1.407       .  A
C753        C758   1.404       .  A
C753        H760   1.084       .  S
C754        C755   1.422       .  A
C755        C756   1.407       .  A
C755        C762   1.517       .  S
C756        C757   1.403       .  A
C756        H761   1.080       .  S
C757        C758   1.418       .  A
C758        C759   1.517       .  S
C759        F763   1.385       .  S
C759        F764   1.384       .  S
C759        F765   1.382       .  S
C762        F766   1.383       .  S
C762        F767   1.381       .  S
C762        F768   1.384       .  S
C769        C770   1.404       .  A
C769        C774   1.405   1_655  A
C769        H776   1.085       .  S
C770        C771   1.417       .  A
C771        C772   1.417   1_655  A
C771        C778   1.516       .  S
C772        C773   1.409       .  A
C772        H777   1.081       .  S
C773        C774   1.419       .  A
C774        C775   1.517       .  S
C775        F779   1.384       .  S
C775        F780   1.383       .  S
C775        F781   1.383       .  S
C778        F782   1.383       .  S
C778        F783   1.383       .  S
C778        F784   1.384   1_655  S
C785        C786   1.401       .  A
C785        C790   1.406   1_556  A
C785        H792   1.081       .  S
C786        C787   1.410       .  A
C787        C788   1.402       .  A
C787        C794   1.512       .  S
C788        C789   1.406   1_556  A
C788        H793   1.083       .  S
C789        C790   1.420       .  A
C790        C791   1.520       .  S
C791        F795   1.385       .  S
C791        F796   1.383       .  S
C791        F797   1.382       .  S
C794        F798   1.383       .  S
C794        F799   1.379       .  S
C794        F800   1.385       .  S
C801        C802   1.400       .  A
C801        C806   1.407   1_545  A
C801        H808   1.085       .  S
C802        C803   1.418       .  A
C803        C804   1.413   1_545  A
C803        C810   1.517       .  S
C804        C805   1.405       .  A
C804        H809   1.083       .  S
C805        C806   1.418       .  A
C806        C807   1.514       .  S
C807        F811   1.384       .  S
C807        F812   1.384       .  S
C807        F813   1.383       .  S
C810        F814   1.384       .  S
C810        F815   1.382       .  S
C810        F816   1.385       .  S
C817        C818   1.406       .  A
C817        C822   1.414   1_554  A
C817        H824   1.083       .  S
C818        C819   1.417       .  A
C819        C820   1.403       .  A
C819        C826   1.516       .  S
C820        C821   1.399   1_554  A
C820        H825   1.084   1_554  S
C821        C822   1.415       .  A
C822        C823   1.515       .  S
C823        F827   1.385       .  S
C823        F828   1.383       .  S
C823        F829   1.379       .  S
C826        F830   1.382       .  S
C826        F831   1.382       .  S
C826        F832   1.385       .  S
C833        C834   1.401       .  A
C833        C838   1.400   1_554  A
C833        H840   1.082       .  S
C834        C835   1.415       .  A
C835        C836   1.422   1_554  A
C835        C842   1.513       .  S
C836        C837   1.410       .  A
C836        H841   1.083       .  S
C837        C838   1.417       .  A
C838        C839   1.516       .  S
C839        F843   1.384       .  S
C839        F844   1.381       .  S
C839        F845   1.380       .  S
C842        F846   1.380       .  S
C842        F847   1.383       .  S
C842        F848   1.384       .  S
C849        C850   1.403       .  A
C849        C854   1.412       .  A
C849        H856   1.084       .  S
C850        C851   1.413       .  A
C851        C852   1.399       .  A
C851        C858   1.508       .  S
C852        C853   1.398       .  A
C852        H857   1.084       .  S
C853        C854   1.421       .  A
C854        C855   1.514       .  S
C855        F859   1.382       .  S
C855        F860   1.381       .  S
C855        F861   1.383       .  S
C858        F862   1.381       .  S
C858        F863   1.380       .  S
C858        F864   1.383       .  S
C865        C866   1.403       .  A
C865        C870   1.409       .  A
C865        H872   1.083       .  S
C866        C867   1.421       .  A
C867        C868   1.401       .  A
C867        C874   1.514       .  S
C868        C869   1.396       .  A
C868        H873   1.085       .  S
C869        C870   1.415       .  A
C870        C871   1.515       .  S
C871        F875   1.384       .  S
C871        F876   1.384       .  S
C871        F877   1.381       .  S
C874        F878   1.377       .  S
C874        F879   1.383       .  S
C874        F880   1.384       .  S
C881        C882   1.399       .  A
C881        C886   1.398   1_556  A
C881        H888   1.083       .  S
C882        C883   1.414       .  A
C883        C884   1.419   1_556  A
C883        C890   1.514       .  S
C884        C885   1.411       .  A
C884        H889   1.083       .  S
C885        C886   1.428       .  A
C886        C887   1.528       .  S
C887        F891   1.385       .  S
C887        F892   1.383       .  S
C887        F893   1.377       .  S
C890        F894   1.382       .  S
C890        F895   1.383       .  S
C890        F896   1.384   1_556  S
C897        C898   1.411       .  A
C897        C902   1.405       .  A
C897        H904   1.083       .  S
C898        C899   1.426       .  A
C899        C900   1.408       .  A
C899        C906   1.520       .  S
C900        C901   1.400       .  A
C900        H905   1.080       .  S
C901        C902   1.411       .  A
C902        C903   1.517       .  S
C903        F907   1.383       .  S
C903        F908   1.384       .  S
C903        F909   1.381       .  S
C906        F910   1.383       .  S
C906        F911   1.383       .  S
C906        F912   1.384       .  S
C913        C914   1.404       .  A
C913        C918   1.411       .  A
C913        H920   1.083       .  S
C914        C915   1.417       .  A
C915        C916   1.399       .  A
C915        C922   1.512       .  S
C916        C917   1.397       .  A
C916        H921   1.082       .  S
C917        C918   1.418       .  A
C918        C919   1.513       .  S
C919        F923   1.384       .  S
C919        F924   1.382       .  S
C919        F925   1.381       .  S
C922        F926   1.378       .  S
C922        F927   1.379       .  S
C922        F928   1.384       .  S
C929        C930   1.403       .  A
C929        C934   1.405       .  A
C929        H936   1.085       .  S
C930        C931   1.419       .  A
C931        C932   1.417       .  A
C931        C938   1.516       .  S
C932        C933   1.406       .  A
C932        H937   1.082       .  S
C933        C934   1.417       .  A
C934        C935   1.516       .  S
C935        F939   1.383       .  S
C935        F940   1.384       .  S
C935        F941   1.383       .  S
C938        F942   1.383       .  S
C938        F943   1.382       .  S
C938        F944   1.384       .  S
C945        C946   1.399       .  A
C945        C950   1.400       .  A
C945        H952   1.084       .  S
C946        C947   1.418       .  A
C947        C948   1.424   1_554  A
C947        C954   1.512       .  S
C948        C949   1.411       .  A
C948        H953   1.083       .  S
C949        C950   1.419   1_556  A
C950        C951   1.513       .  S
C951        F955   1.384       .  S
C951        F956   1.378       .  S
C951        F957   1.381   1_554  S
C954        F958   1.383       .  S
C954        F959   1.382       .  S
C954        F960   1.385   1_554  S
C961        C962   1.404   1_556  A
C961        C966   1.400       .  A
C961        H968   1.084       .  S
C962        C963   1.419       .  A
C963        C964   1.414   1_554  A
C963        C970   1.509       .  S
C964        C965   1.404       .  A
C964        H969   1.084       .  S
C965        C966   1.412       .  A
C966        C967   1.511       .  S
C967        F971   1.384       .  S
C967        F972   1.382       .  S
C967        F973   1.382       .  S
C970        F974   1.383       .  S
C970        F975   1.373       .  S
C970        F976   1.384       .  S
C977        C978   1.408       .  A
C977        C982   1.418       .  A
C977        H984   1.083       .  S
C978        C979   1.414       .  A
C979        C980   1.400       .  A
C979        C986   1.515       .  S
C980        C981   1.398       .  A
C980        H985   1.076       .  S
C981        C982   1.418       .  A
C982        C983   1.517       .  S
C983        F987   1.378       .  S
C983        F988   1.383       .  S
C983        F989   1.384       .  S
C986        F990   1.381       .  S
C986        F991   1.382       .  S
C986        F992   1.384       .  S
C993        C994   1.413       .  A
C993        C998   1.415       .  A
C993       H1000   1.083       .  S
C994        C995   1.427       .  A
C995        C996   1.397       .  A
C995       C1002   1.529       .  S
C996        C997   1.400       .  A
C996       H1001   1.081       .  S
C997        C998   1.411       .  A
C998        C999   1.513       .  S
C999       F1003   1.383       .  S
C999       F1004   1.383       .  S
C999       F1005   1.385       .  S
C1002      F1006   1.383       .  S
C1002      F1007   1.380       .  S
C1002      F1008   1.386       .  S
C1009      C1010   1.410       .  A
C1009      C1014   1.400       .  A
C1009      H1016   1.081       .  S
C1010      C1011   1.425       .  A
C1011      C1012   1.415       .  A
C1011      C1018   1.518       .  S
C1012      C1013   1.406       .  A
C1012      H1017   1.083       .  S
C1013      C1014   1.417       .  A
C1014      C1015   1.519       .  S
C1015      F1019   1.385       .  S
C1015      F1020   1.381       .  S
C1015      F1021   1.379       .  S
C1018      F1022   1.384       .  S
C1018      F1023   1.383       .  S
C1018      F1024   1.385       .  S
C1025      C1026   1.408       .  A
C1025      C1030   1.408       .  A
C1025      H1032   1.082       .  S
C1026      C1027   1.422       .  A
C1027      C1028   1.408       .  A
C1027      C1034   1.521       .  S
C1028      C1029   1.408       .  A
C1028      H1033   1.082       .  S
C1029      C1030   1.425       .  A
C1030      C1031   1.524       .  S
C1031      F1035   1.385       .  S
C1031      F1036   1.384       .  S
C1031      F1037   1.383       .  S
C1034      F1038   1.384       .  S
C1034      F1039   1.383       .  S
C1034      F1040   1.385       .  S
C1041      C1042   1.396       .  A
C1041      C1046   1.403       .  A
C1041      H1048   1.084       .  S
C1042      C1043   1.414       .  A
C1043      C1044   1.416       .  A
C1043      C1050   1.513       .  S
C1044      C1045   1.407       .  A
C1044      H1049   1.083       .  S
C1045      C1046   1.424       .  A
C1046      C1047   1.515       .  S
C1047      F1051   1.386       .  S
C1047      F1052   1.379       .  S
C1047      F1053   1.380       .  S
C1050      F1054   1.383       .  S
C1050      F1055   1.379       .  S
C1050      F1056   1.384       .  S
C1057      C1058   1.412       .  A
C1057      C1062   1.415       .  A
C1057      H1064   1.082       .  S
C1058      C1059   1.426       .  A
C1059      C1060   1.409       .  A
C1059      C1066   1.524       .  S
C1060      C1061   1.410       .  A
C1060      H1065   1.081       .  S
C1061      C1062   1.422       .  A
C1062      C1063   1.520       .  S
C1063      F1067   1.385       .  S
C1063      F1068   1.383       .  S
C1063      F1069   1.384       .  S
C1066      F1070   1.383       .  S
C1066      F1071   1.384       .  S
C1066      F1072   1.385       .  S
C1073      C1074   1.405       .  A
C1073      C1078   1.409       .  A
C1073      H1080   1.081       .  S
C1074      C1075   1.414       .  A
C1075      C1076   1.400       .  A
C1075      C1082   1.511       .  S
C1076      C1077   1.399       .  A
C1076      H1081   1.085       .  S
C1077      C1078   1.413       .  A
C1078      C1079   1.514       .  S
C1079      F1083   1.384       .  S
C1079      F1084   1.382       .  S
C1079      F1085   1.380       .  S
C1082      F1086   1.384       .  S
C1082      F1087   1.382       .  S
C1082      F1088   1.384       .  S
C1089      C1090   1.402       .  A
C1089      C1094   1.400       .  A
C1089      H1096   1.078       .  S
C1090      C1091   1.417       .  A
C1091      C1092   1.409       .  A
C1091      C1098   1.516       .  S
C1092      C1093   1.401       .  A
C1092      H1097   1.080       .  S
C1093      C1094   1.412       .  A
C1094      C1095   1.514       .  S
C1095      F1099   1.385       .  S
C1095      F1100   1.384       .  S
C1095      F1101   1.381       .  S
C1098      F1102   1.384       .  S
C1098      F1103   1.382       .  S
C1098      F1104   1.385       .  S
C1105      C1106   1.401       .  A
C1105      C1110   1.402       .  A
C1105      H1112   1.083       .  S
C1106      C1107   1.416       .  A
C1107      C1108   1.401       .  A
C1107      C1114   1.520       .  S
C1108      C1109   1.402       .  A
C1108      H1113   1.084       .  S
C1109      C1110   1.417       .  A
C1110      C1111   1.518       .  S
C1111      F1115   1.385       .  S
C1111      F1116   1.381       .  S
C1111      F1117   1.382       .  S
C1114      F1118   1.382       .  S
C1114      F1119   1.382       .  S
C1114      F1120   1.385       .  S
C1121      C1122   1.406       .  A
C1121      C1126   1.415       .  A
C1121      H1128   1.083       .  S
C1122      C1123   1.416       .  A
C1123      C1124   1.391       .  A
C1123      C1130   1.523       .  S
C1124      C1125   1.401       .  A
C1124      H1129   1.083       .  S
C1125      C1126   1.415       .  A
C1126      C1127   1.514       .  S
C1127      F1131   1.385       .  S
C1127      F1132   1.384       .  S
C1127      F1133   1.382       .  S
C1130      F1134   1.382       .  S
C1130      F1135   1.373       .  S
C1130      F1136   1.385       .  S
C1137      C1138   1.415       .  A
C1137      C1142   1.415       .  A
C1137      H1144   1.083       .  S
C1138      C1139   1.422       .  A
C1139      C1140   1.400       .  A
C1139      C1146   1.522       .  S
C1140      C1141   1.403       .  A
C1140      H1145   1.083       .  S
C1141      C1142   1.410       .  A
C1142      C1143   1.515       .  S
C1143      F1147   1.384       .  S
C1143      F1148   1.382       .  S
C1143      F1149   1.383       .  S
C1146      F1150   1.383       .  S
C1146      F1151   1.385       .  S
C1146      F1152   1.380       .  S
C1153      C1154   1.413       .  A
C1153      C1158   1.406       .  A
C1153      H1160   1.081       .  S
C1154      C1155   1.424       .  A
C1155      C1156   1.414       .  A
C1155      C1162   1.519       .  S
C1156      C1157   1.404       .  A
C1156      H1161   1.083       .  S
C1157      C1158   1.411       .  A
C1158      C1159   1.518       .  S
C1159      F1163   1.385       .  S
C1159      F1164   1.382       .  S
C1159      F1165   1.382       .  S
C1162      F1166   1.384       .  S
C1162      F1167   1.383       .  S
C1162      F1168   1.385       .  S
C1169      C1170   1.404       .  A
C1169      C1174   1.404       .  A
C1169      H1176   1.085       .  S
C1170      C1171   1.416       .  A
C1171      C1172   1.413       .  A
C1171      C1178   1.512       .  S
C1172      C1173   1.405       .  A
C1172      H1177   1.083       .  S
C1173      C1174   1.416       .  A
C1174      C1175   1.516       .  S
C1175      F1179   1.380       .  S
C1175      F1180   1.383       .  S
C1175      F1181   1.383       .  S
C1178      F1182   1.381       .  S
C1178      F1183   1.383       .  S
C1178      F1184   1.385       .  S
C1185      C1186   1.407       .  A
C1185      C1190   1.414       .  A
C1185      H1192   1.083       .  S
C1186      C1187   1.418       .  A
C1187      C1188   1.403       .  A
C1187      C1194   1.513       .  S
C1188      C1189   1.396       .  A
C1188      H1193   1.080       .  S
C1189      C1190   1.417       .  A
C1190      C1191   1.515       .  S
C1191      F1195   1.384       .  S
C1191      F1196   1.383       .  S
C1191      F1197   1.382       .  S
C1194      F1198   1.383       .  S
C1194      F1199   1.382       .  S
C1194      F1200   1.384       .  S
C1201      C1202   1.399       .  A
C1201      C1206   1.405       .  A
C1201      H1208   1.084       .  S
C1202      C1203   1.426       .  A
C1203      C1204   1.411       .  A
C1203      C1210   1.518       .  S
C1204      C1205   1.403       .  A
C1204      H1209   1.085       .  S
C1205      C1206   1.418       .  A
C1206      C1207   1.512       .  S
C1207      F1211   1.384       .  S
C1207      F1212   1.382       .  S
C1207      F1213   1.379       .  S
C1210      F1214   1.378       .  S
C1210      F1215   1.384       .  S
C1210      F1216   1.383       .  S
C1217      C1218   1.410       .  A
C1217      C1222   1.414       .  A
C1217      H1224   1.082       .  S
C1218      C1219   1.425       .  A
C1219      C1220   1.411       .  A
C1219      C1226   1.521       .  S
C1220      C1221   1.407       .  A
C1220      H1225   1.081       .  S
C1221      C1222   1.427       .  A
C1222      C1223   1.524       .  S
C1223      F1227   1.385       .  S
C1223      F1228   1.383       .  S
C1223      F1229   1.384       .  S
C1226      F1230   1.384       .  S
C1226      F1231   1.383       .  S
C1226      F1232   1.384       .  S
C1233      C1234   1.408       .  A
C1233      C1238   1.424       .  A
C1233      H1240   1.084       .  S
C1234      C1235   1.416       .  A
C1235      C1236   1.404       .  A
C1235      C1242   1.509       .  S
C1236      C1237   1.404       .  A
C1236      H1241   1.085       .  S
C1237      C1238   1.428       .  A
C1238      C1239   1.515       .  S
C1239      F1243   1.382       .  S
C1239      F1244   1.378       .  S
C1239      F1245   1.383       .  S
C1242      F1246   1.382       .  S
C1242      F1247   1.378       .  S
C1242      F1248   1.384       .  S
C1249      C1250   1.394       .  A
C1249      C1254   1.399       .  A
C1249      H1256   1.082       .  S
C1250      C1251   1.409       .  A
C1251      C1252   1.410       .  A
C1251      C1258   1.510       .  S
C1252      C1253   1.411       .  A
C1252      H1257   1.083       .  S
C1253      C1254   1.431       .  A
C1254      C1255   1.526       .  S
C1255      F1259   1.386       .  S
C1255      F1260   1.381       .  S
C1255      F1261   1.384       .  S
C1258      F1262   1.383       .  S
C1258      F1263   1.379       .  S
C1258      F1264   1.385       .  S
C1265      C1266   1.404       .  A
C1265      C1270   1.409       .  A
C1265      H1272   1.085       .  S
C1266      C1267   1.416       .  A
C1267      C1268   1.420       .  A
C1267      C1274   1.514       .  S
C1268      C1269   1.409       .  A
C1268      H1273   1.083       .  S
C1269      C1270   1.416       .  A
C1270      C1271   1.514       .  S
C1271      F1275   1.384       .  S
C1271      F1276   1.382       .  S
C1271      F1277   1.384       .  S
C1274      F1278   1.383       .  S
C1274      F1279   1.385       .  S
C1274      F1280   1.382       .  S
C1281      C1282   1.403       .  A
C1281      C1286   1.400       .  A
C1281      H1288   1.083       .  S
C1282      C1283   1.422       .  A
C1283      C1284   1.406       .  A
C1283      C1290   1.517       .  S
C1284      C1285   1.400       .  A
C1284      H1289   1.083       .  S
C1285      C1286   1.414       .  A
C1286      C1287   1.516       .  S
C1287      F1291   1.379       .  S
C1287      F1292   1.383       .  S
C1287      F1293   1.383       .  S
C1290      F1294   1.380       .  S
C1290      F1295   1.384       .  S
C1290      F1296   1.385       .  S
C1297      C1298   1.406       .  A
C1297      C1302   1.406       .  A
C1297      H1304   1.082       .  S
C1298      C1299   1.422       .  A
C1299      C1300   1.411       .  A
C1299      C1306   1.519       .  S
C1300      C1301   1.408       .  A
C1300      H1305   1.082       .  S
C1301      C1302   1.422       .  A
C1302      C1303   1.516       .  S
C1303      F1307   1.385       .  S
C1303      F1308   1.383       .  S
C1303      F1309   1.384       .  S
C1306      F1310   1.382       .  S
C1306      F1311   1.383       .  S
C1306      F1312   1.384       .  S
C1313      C1314   1.401       .  A
C1313      C1318   1.401       .  A
C1313      H1320   1.084       .  S
C1314      C1315   1.415       .  A
C1315      C1316   1.416       .  A
C1315      C1322   1.513       .  S
C1316      C1317   1.408       .  A
C1316      H1321   1.083       .  S
C1317      C1318   1.415       .  A
C1318      C1319   1.510       .  S
C1319      F1323   1.383       .  S
C1319      F1324   1.381       .  S
C1319      F1325   1.379       .  S
C1322      F1326   1.384       .  S
C1322      F1327   1.379       .  S
C1322      F1328   1.384       .  S
C1329      C1330   1.408       .  A
C1329      C1334   1.414       .  A
C1329      H1336   1.083       .  S
C1330      C1331   1.425       .  A
C1331      C1332   1.415       .  A
C1331      C1338   1.520       .  S
C1332      C1333   1.408       .  A
C1332      H1337   1.082       .  S
C1333      C1334   1.426       .  A
C1334      C1335   1.520       .  S
C1335      F1339   1.385       .  S
C1335      F1340   1.382       .  S
C1335      F1341   1.383       .  S
C1338      F1342   1.384       .  S
C1338      F1343   1.383       .  S
C1338      F1344   1.385       .  S
C1345      C1346   1.404       .  A
C1345      C1350   1.416   1_545  A
C1345      H1352   1.083       .  S
C1346      C1347   1.421       .  A
C1347      C1348   1.415   1_545  A
C1347      C1354   1.517       .  S
C1348      C1349   1.403       .  A
C1348      H1353   1.083       .  S
C1349      C1350   1.422       .  A
C1350      C1351   1.518       .  S
C1351      F1355   1.384       .  S
C1351      F1356   1.382       .  S
C1351      F1357   1.383       .  S
C1354      F1358   1.382       .  S
C1354      F1359   1.383       .  S
C1354      F1360   1.385       .  S
C1361      C1362   1.403       .  A
C1361      C1366   1.398       .  A
C1361      H1368   1.082       .  S
C1362      C1363   1.416       .  A
C1363      C1364   1.413       .  A
C1363      C1370   1.512       .  S
C1364      C1365   1.409       .  A
C1364      H1369   1.083       .  S
C1365      C1366   1.426       .  A
C1366      C1367   1.526       .  S
C1367      F1371   1.385       .  S
C1367      F1372   1.377       .  S
C1367      F1373   1.382       .  S
C1370      F1374   1.377       .  S
C1370      F1375   1.382       .  S
C1370      F1376   1.385       .  S
C1377      C1378   1.405       .  A
C1377      C1382   1.411       .  A
C1377      H1384   1.082       .  S
C1378      C1379   1.419       .  A
C1379      C1380   1.405       .  A
C1379      C1386   1.521       .  S
C1380      C1381   1.406       .  A
C1380      H1385   1.083       .  S
C1381      C1382   1.421       .  A
C1382      C1383   1.515       .  S
C1383      F1387   1.385       .  S
C1383      F1388   1.382       .  S
C1383      F1389   1.378       .  S
C1386      F1390   1.383       .  S
C1386      F1391   1.382       .  S
C1386      F1392   1.385       .  S
C1393      C1394   1.402       .  A
C1393      C1398   1.410   1_455  A
C1393      H1400   1.078       .  S
C1394      C1395   1.420       .  A
C1395      C1396   1.410   1_455  A
C1395      C1402   1.513       .  S
C1396      C1397   1.401       .  A
C1396      H1401   1.084       .  S
C1397      C1398   1.418       .  A
C1398      C1399   1.520       .  S
C1399      F1403   1.384       .  S
C1399      F1404   1.382       .  S
C1399      F1405   1.383       .  S
C1402      F1406   1.381       .  S
C1402      F1407   1.382       .  S
C1402      F1408   1.383       .  S
C1409      C1410   1.407       .  A
C1409      C1414   1.422       .  A
C1409      H1416   1.083       .  S
C1410      C1411   1.411       .  A
C1411      C1412   1.401       .  A
C1411      C1418   1.514       .  S
C1412      C1413   1.411       .  A
C1412      H1417   1.083       .  S
C1413      C1414   1.425       .  A
C1414      C1415   1.512       .  S
C1415      F1419   1.385       .  S
C1415      F1420   1.380       .  S
C1415      F1421   1.369       .  S
C1418      F1422   1.382       .  S
C1418      F1423   1.383       .  S
C1418      F1424   1.385       .  S
C1425      C1426   1.407       .  A
C1425      C1430   1.410       .  A
C1425      H1432   1.082       .  S
C1426      C1427   1.420       .  A
C1427      C1428   1.408       .  A
C1427      C1434   1.512       .  S
C1428      C1429   1.400       .  A
C1428      H1433   1.084       .  S
C1429      C1430   1.412       .  A
C1430      C1431   1.514       .  S
C1431      F1435   1.385       .  S
C1431      F1436   1.383       .  S
C1431      F1437   1.381       .  S
C1434      F1438   1.383       .  S
C1434      F1439   1.380       .  S
C1434      F1440   1.385       .  S
C1441      C1442   1.403       .  A
C1441      C1446   1.414       .  A
C1441      H1448   1.083       .  S
C1442      C1443   1.412       .  A
C1443      C1444   1.410       .  A
C1443      C1450   1.518       .  S
C1444      C1445   1.414       .  A
C1444      H1449   1.082       .  S
C1445      C1446   1.429       .  A
C1446      C1447   1.521       .  S
C1447      F1451   1.385       .  S
C1447      F1452   1.383       .  S
C1447      F1453   1.383       .  S
C1450      F1454   1.382       .  S
C1450      F1455   1.383       .  S
C1450      F1456   1.384       .  S
C1457      C1458   1.402       .  A
C1457      C1462   1.408   1_565  A
C1457      H1464   1.083       .  S
C1458      C1459   1.416       .  A
C1459      C1460   1.405   1_565  A
C1459      C1466   1.516       .  S
C1460      C1461   1.404       .  A
C1460      H1465   1.084       .  S
C1461      C1462   1.417       .  A
C1462      C1463   1.515       .  S
C1463      F1467   1.384       .  S
C1463      F1468   1.384       .  S
C1463      F1469   1.382       .  S
C1466      F1470   1.384       .  S
C1466      F1471   1.382       .  S
C1466      F1472   1.384   1_565  S
C1473      C1474   1.417       .  A
C1473      C1478   1.420       .  A
C1473      H1480   1.082       .  S
C1474      C1475   1.430       .  A
C1475      C1476   1.402       .  A
C1475      C1482   1.523       .  S
C1476      C1477   1.402       .  A
C1476      H1481   1.084       .  S
C1477      C1478   1.414       .  A
C1478      C1479   1.513       .  S
C1479      F1483   1.382       .  S
C1479      F1484   1.378       .  S
C1479      F1485   1.385       .  S
C1482      F1486   1.385       .  S
C1482      F1487   1.376       .  S
C1482      F1488   1.383       .  S
C1489      C1490   1.396       .  A
C1489      C1494   1.403       .  A
C1489      H1496   1.085       .  S
C1490      C1491   1.411       .  A
C1491      C1492   1.418       .  A
C1491      C1498   1.515       .  S
C1492      C1493   1.414       .  A
C1492      H1497   1.082       .  S
C1493      C1494   1.423       .  A
C1494      C1495   1.513       .  S
C1495      F1499   1.383       .  S
C1495      F1500   1.383       .  S
C1495      F1501   1.383       .  S
C1498      F1502   1.384       .  S
C1498      F1503   1.381       .  S
C1498      F1504   1.382       .  S
C1505      C1506   1.405       .  A
C1505      C1510   1.413       .  A
C1505      H1512   1.083       .  S
C1506      C1507   1.419       .  A
C1507      C1508   1.403       .  A
C1507      C1514   1.520       .  S
C1508      C1509   1.401       .  A
C1508      H1513   1.083       .  S
C1509      C1510   1.418       .  A
C1510      C1511   1.515       .  S
C1511      F1515   1.384       .  S
C1511      F1516   1.381       .  S
C1511      F1517   1.382       .  S
C1514      F1518   1.382       .  S
C1514      F1519   1.383       .  S
C1514      F1520   1.385       .  S
C1521      C1522   1.403       .  A
C1521      C1526   1.413   1_455  A
C1521      H1528   1.083       .  S
C1522      C1523   1.416       .  A
C1523      C1524   1.406   1_455  A
C1523      C1530   1.518       .  S
C1524      C1525   1.405       .  A
C1524      H1529   1.084       .  S
C1525      C1526   1.421       .  A
C1526      C1527   1.515       .  S
C1527      F1531   1.385       .  S
C1527      F1532   1.378       .  S
C1527      F1533   1.383       .  S
C1530      F1534   1.382       .  S
C1530      F1535   1.384       .  S
C1530      F1536   1.384       .  S
C1537      C1538   1.394       .  A
C1537      C1542   1.401       .  A
C1537      H1544   1.084       .  S
C1538      C1539   1.410       .  A
C1539      C1540   1.411       .  A
C1539      C1546   1.511       .  S
C1540      C1541   1.409       .  A
C1540      H1545   1.083       .  S
C1541      C1542   1.430       .  A
C1542      C1543   1.525       .  S
C1543      F1547   1.385       .  S
C1543      F1548   1.382       .  S
C1543      F1549   1.380       .  S
C1546      F1550   1.383       .  S
C1546      F1551   1.383       .  S
C1546      F1552   1.385       .  S
C1553      C1554   1.406       .  A
C1553      C1558   1.416       .  A
C1553      H1560   1.082       .  S
C1554      C1555   1.417       .  A
C1555      C1556   1.404       .  A
C1555      C1562   1.505       .  S
C1556      C1557   1.396       .  A
C1556      H1561   1.084       .  S
C1557      C1558   1.416       .  A
C1558      C1559   1.512       .  S
C1559      F1563   1.376       .  S
C1559      F1564   1.383       .  S
C1559      F1565   1.383       .  S
C1562      F1566   1.381       .  S
C1562      F1567   1.384       .  S
C1562      F1568   1.385       .  S
C1569      C1570   1.410       .  A
C1569      C1574   1.407       .  A
C1569      H1576   1.083       .  S
C1570      C1571   1.412       .  A
C1571      C1572   1.398       .  A
C1571      C1578   1.516       .  S
C1572      C1573   1.408       .  A
C1572      H1577   1.085       .  S
C1573      C1574   1.413       .  A
C1574      C1575   1.514       .  S
C1575      F1579   1.385       .  S
C1575      F1580   1.383       .  S
C1575      F1581   1.380       .  S
C1578      F1582   1.384       .  S
C1578      F1583   1.383       .  S
C1578      F1584   1.384       .  S
C1585      C1586   1.406       .  A
C1585      C1590   1.413       .  A
C1585      H1592   1.082       .  S
C1586      C1587   1.423       .  A
C1587      C1588   1.410       .  A
C1587      C1594   1.522       .  S
C1588      C1589   1.408       .  A
C1588      H1593   1.082       .  S
C1589      C1590   1.427       .  A
C1590      C1591   1.522       .  S
C1591      F1595   1.385       .  S
C1591      F1596   1.383       .  S
C1591      F1597   1.383       .  S
C1594      F1598   1.383       .  S
C1594      F1599   1.382       .  S
C1594      F1600   1.385       .  S
C1601      C1602   1.404       .  A
C1601      C1606   1.409       .  A
C1601      H1608   1.082       .  S
C1602      C1603   1.418       .  A
C1603      C1604   1.419       .  A
C1603      C1610   1.513       .  S
C1604      C1605   1.408       .  A
C1604      H1609   1.083       .  S
C1605      C1606   1.420       .  A
C1606      C1607   1.518       .  S
C1607      F1611   1.385       .  S
C1607      F1612   1.380       .  S
C1607      F1613   1.381       .  S
C1610      F1614   1.383       .  S
C1610      F1615   1.381       .  S
C1610      F1616   1.384       .  S
C1617      C1618   1.406       .  A
C1617      C1622   1.417       .  A
C1617      H1624   1.084       .  S
C1618      C1619   1.421       .  A
C1619      C1620   1.403       .  A
C1619      C1626   1.516       .  S
C1620      C1621   1.399       .  A
C1620      H1625   1.084       .  S
C1621      C1622   1.421       .  A
C1622      C1623   1.514       .  S
C1623      F1627   1.382       .  S
C1623      F1628   1.382       .  S
C1623      F1629   1.383       .  S
C1626      F1630   1.380       .  S
C1626      F1631   1.382       .  S
C1626      F1632   1.385       .  S
C1633      C1634   1.401       .  A
C1633      C1638   1.403       .  A
C1633      H1640   1.085       .  S
C1634      C1635   1.417       .  A
C1635      C1636   1.401       .  A
C1635      C1642   1.512       .  S
C1636      C1637   1.400       .  A
C1636      H1641   1.085       .  S
C1637      C1638   1.418       .  A
C1638      C1639   1.515       .  S
C1639      F1643   1.384       .  S
C1639      F1644   1.383       .  S
C1639      F1645   1.382       .  S
C1642      F1646   1.383       .  S
C1642      F1647   1.383       .  S
C1642      F1648   1.384       .  S
C1649      C1650   1.402       .  A
C1649      C1654   1.407       .  A
C1649      H1656   1.084       .  S
C1650      C1651   1.418       .  A
C1651      C1652   1.415       .  A
C1651      C1658   1.517       .  S
C1652      C1653   1.405       .  A
C1652      H1657   1.083       .  S
C1653      C1654   1.416       .  A
C1654      C1655   1.512       .  S
C1655      F1659   1.385       .  S
C1655      F1660   1.384       .  S
C1655      F1661   1.376       .  S
C1658      F1662   1.383       .  S
C1658      F1663   1.379       .  S
C1658      F1664   1.384       .  S
C1665      C1666   1.401       .  A
C1665      C1670   1.401       .  A
C1665      H1672   1.083       .  S
C1666      C1667   1.419       .  A
C1667      C1668   1.419       .  A
C1667      C1674   1.515       .  S
C1668      C1669   1.411       .  A
C1668      H1673   1.082       .  S
C1669      C1670   1.434       .  A
C1670      C1671   1.531       .  S
C1671      F1675   1.385       .  S
C1671      F1676   1.384       .  S
C1671      F1677   1.381       .  S
C1674      F1678   1.383       .  S
C1674      F1679   1.383       .  S
C1674      F1680   1.385       .  S
