geometry optimzed in LAMMPS
_audit_creation_date              2020-12-01 
_audit_creation_method            'lammps2cif' 
_symmetry_space_group_name_H-M    'P1' 
_symmetry_Int_Tables_number       1 
_symmetry_cell_setting            triclinic 
loop_ 
_symmetry_equiv_pos_as_xyz 
  x,y,z 
_cell_length_a                    62.0033966 
_cell_length_b                    62.27177995592811 
_cell_length_c                    44.953981046773606 
_cell_angle_alpha                 90.26753442049625 
_cell_angle_beta                  89.76169687092822 
_cell_angle_gamma                 119.7483874677161 
loop_ 
_atom_site_label 
_atom_site_type_symbol 
_atom_site_fract_x 
_atom_site_fract_y 
_atom_site_fract_z 
_atom_site_charge 
Fe1        Fe  0.11020371  0.23601893  0.28457737     1.65800
Fe2        Fe  0.16195169  0.23069362  0.27610885     1.73200
Fe3        Fe  0.11122686  0.18506198  0.30917033     1.54400
O4          O  0.10338442  0.20011100  0.34560101    -0.82500
O5          O  0.15822477  0.19622679  0.26840515    -0.80800
O6          O  0.09854484  0.23116107  0.32870067    -0.85000
O7          O  0.07723189  0.20608258  0.27107484    -0.79900
O8          O  0.14390493  0.19222365  0.33073378    -0.81600
O9          O  0.15010047  0.23084613  0.23346379    -0.84400
C10         C  0.06577663  0.18328264  0.27724290     0.96400
C11         C  0.09858538  0.21753378  0.34974377     1.03800
O12         O  0.12761471  0.21737782  0.29003693    -1.13400
O13         O  0.17266243  0.26784964  0.28057224    -0.75800
O14         O  0.13986011  0.26909299  0.29759453    -0.79300
O15         O  0.07587886  0.17302451  0.29144784    -0.80000
C16         C  0.16249727  0.27976428  0.29036230     0.95300
O17         O  0.12080556  0.24180850  0.23999101    -0.77900
O18         O  0.17436982  0.23007805  0.31859662    -0.83100
C19         C  0.14019923  0.17462884  0.26402014     0.97900
C20         C  0.16541363  0.21090047  0.33497437     1.03800
O21         O  0.11861321  0.16836453  0.27362631    -0.78800
C22         C  0.13421466  0.23630653  0.22349176     1.02100
Fe23       Fe  0.20624984  0.43073153  0.30909094     1.65800
Fe24       Fe  0.26397329  0.43679286  0.31117508     1.73200
Fe25       Fe  0.25600896  0.48208409  0.28009748     1.54400
O26         O  0.22884875  0.46547463  0.24701202    -0.82500
O27         O  0.29341149  0.47108542  0.32212588    -0.80800
O28         O  0.19809845  0.42933360  0.26461212    -0.85000
O29         O  0.20119294  0.46048323  0.31571858    -0.79900
O30         O  0.27912383  0.47510756  0.25383481    -0.81600
O31         O  0.25111479  0.43295151  0.35513004    -0.84400
C32         C  0.21378680  0.48371146  0.31413000     0.96400
C33         C  0.20893842  0.44464299  0.24363209     1.03800
O34         O  0.24209266  0.44992555  0.30024487    -1.13400
O35         O  0.23937717  0.40019472  0.30063592    -0.75800
O36         O  0.20234486  0.39631153  0.30515722    -0.79300
O37         O  0.23548091  0.49475747  0.30330485    -0.80000
C38         C  0.21601223  0.38699025  0.30074367     0.95300
O39         O  0.21406535  0.43158142  0.35340097    -0.77900
O40         O  0.27801516  0.44045711  0.26845813    -0.83100
C41         C  0.29897123  0.49360442  0.32255756     0.97900
C42         C  0.28468761  0.45822212  0.25026416     1.03800
O43         O  0.28471499  0.50056814  0.31099701    -0.78800
C44         C  0.23218164  0.43235434  0.36754930     1.02100
Fe45       Fe  0.53940400  0.45361026  0.14116377     1.65800
Fe46       Fe  0.54251626  0.40303382  0.11659993     1.73200
Fe47       Fe  0.49130196  0.39529202  0.15345591     1.54400
O48         O  0.50493242  0.41078129  0.19539983    -0.82500
O49         O  0.51086967  0.37755041  0.09454992    -0.80800
O50         O  0.53521917  0.44986786  0.18681856    -0.85000
O51         O  0.50696306  0.45491606  0.13583777    -0.79900
O52         O  0.49856435  0.36734377  0.16297811    -0.81600
O53         O  0.54956966  0.42667880  0.08112716    -0.84400
C54         C  0.48404561  0.44000180  0.13923476     0.96400
C55         C  0.52249228  0.43182061  0.20428712     1.03800
O56         O  0.52442160  0.41744060  0.13688057    -1.13400
O57         O  0.57686005  0.42657963  0.13544829    -0.75800
O58         O  0.57490121  0.46026136  0.14686856    -0.79300
O59         O  0.47590125  0.41768898  0.14627043    -0.80000
C60         C  0.58680718  0.44878451  0.14436213     0.95300
O61         O  0.54528790  0.45876034  0.09595406    -0.77900
O62         O  0.53664778  0.37741165  0.14988669    -0.83100
C63         C  0.48799447  0.37125219  0.09364756     0.97900
C64         C  0.51630308  0.36287474  0.16276662     1.03800
O65         O  0.47764311  0.37871673  0.11240800    -0.78800
C66         C  0.54946836  0.44673181  0.07595219     1.02100
Fe67       Fe  0.44015163  0.54406023  0.11196391     1.65800
Fe68       Fe  0.38233920  0.49426373  0.10011479     1.73200
Fe69       Fe  0.38845867  0.54569496  0.13486265     1.54400
O70         O  0.41115927  0.55316637  0.17138299    -0.82500
O71         O  0.35443223  0.50142840  0.08788055    -0.80800
O72         O  0.44431546  0.55035700  0.15719673    -0.85000
O73         O  0.44602017  0.57926796  0.10419090    -0.79900
O74         O  0.36155170  0.51345139  0.15504122    -0.81600
O75         O  0.39823554  0.50600098  0.05886801    -0.84400
C76         C  0.43427398  0.59086521  0.10787372     0.96400
C77         C  0.43141977  0.55346965  0.17706021     1.03800
O78         O  0.40381365  0.52805933  0.11572702    -1.13400
O79         O  0.40553589  0.48019976  0.10998313    -0.75800
O80         O  0.44227535  0.51264072  0.11941534    -0.79300
O81         O  0.41233624  0.58056457  0.11796735    -0.80000
C82         C  0.42806432  0.48956720  0.11737065     0.95300
O83         O  0.43681230  0.53802742  0.06658120    -0.77900
O84         O  0.36474693  0.48084359  0.14026717    -0.83100
C85         C  0.35037409  0.51946723  0.08686151     0.97900
C86         C  0.35516316  0.49063061  0.15648505     1.03800
O87         O  0.36470861  0.53981086  0.09968164    -0.78800
C88         C  0.41900434  0.52344690  0.04967773     1.02100
Fe89       Fe  0.23362684  0.12620617  0.47731695     1.65800
Fe90       Fe  0.22484986  0.17579822  0.48785195     1.73200
Fe91       Fe  0.18054317  0.12334377  0.45334110     1.54400
O92         O  0.19574689  0.11329524  0.41905691    -0.82500
O93         O  0.19036398  0.17045299  0.00009404    -0.80800
O94         O  0.23366437  0.12116114  0.43160511    -0.85000
O95         O  0.20440732  0.09090714  0.48306819    -0.79900
O96         O  0.18703186  0.15457700  0.42951664    -0.81600
O97         O  0.22888297  0.16500096  0.03051449    -0.84400
C98         C  0.18095222  0.07938162  0.48187782     0.96400
C99         C  0.21660680  0.11539684  0.41236145     1.03800
O100        O  0.21311222  0.14188012  0.47282170    -1.13400
O101        O  0.26249150  0.19025270  0.47787160    -0.75800
O102        O  0.26716518  0.15757670  0.47248354    -0.79300
O103        O  0.16889435  0.08983036  0.47410678    -0.80000
C104        C  0.27600071  0.18065673  0.47287616     0.95300
O105        O  0.23911451  0.13574001  0.02079999    -0.77900
O106        O  0.22057302  0.18836223  0.44687470    -0.83100
C107        C  0.16730610  0.15052587  0.49931507     0.97900
C108        C  0.20291495  0.17757373  0.42832163     1.03800
O109        O  0.16189252  0.13067353  0.48586845    -0.78800
C110        C  0.23384529  0.14829060  0.03868360     1.02100
Fe111      Fe  0.42680055  0.21903001  0.45018401     1.65800
Fe112      Fe  0.43236028  0.27607772  0.44231222     1.73200
Fe113      Fe  0.47781469  0.27062850  0.47639966     1.54400
O114        O  0.46166115  0.24816661  0.01084189    -0.82500
O115        O  0.46732411  0.30601055  0.43352109    -0.80800
O116        O  0.43112574  0.21234867  0.49433488    -0.85000
O117        O  0.45734613  0.21613947  0.43796210    -0.79900
O118        O  0.47111853  0.29684644  0.99723483    -0.81600
O119        O  0.43128140  0.26330091  0.39954013    -0.84400
C120        C  0.48007767  0.22717999  0.44509664     0.96400
C121        C  0.44344113  0.22664805  0.01537899     1.03800
O122        O  0.44555626  0.25501049  0.45626037    -1.13400
O123        O  0.39508125  0.25054878  0.44929191    -0.75800
O124        O  0.39276945  0.21510743  0.46178725    -0.79300
O125        O  0.49019602  0.24749273  0.45923188    -0.80000
C126        C  0.38277627  0.22830391  0.45788903     0.95300
O127        O  0.42182810  0.22368285  0.40546772    -0.77900
O128        O  0.43363550  0.29004764  0.48441672    -0.83100
C129        C  0.48954328  0.31015918  0.43234436     0.97900
C130        C  0.45258422  0.29972943  0.50121355     1.03800
O131        O  0.49558198  0.29484951  0.44216794    -0.78800
C132        C  0.42673006  0.24234742  0.38927501     1.02100
Fe133      Fe  0.53684993  0.09380517  0.39436974     1.65800
Fe134      Fe  0.54145521  0.14590075  0.36362466     1.73200
Fe135      Fe  0.48774090  0.10372918  0.39767389     1.54400
O136        O  0.47328308  0.06586287  0.38931282    -0.82500
O137        O  0.53562475  0.16632922  0.39595860    -0.80800
O138        O  0.50584710  0.06070393  0.38722333    -0.85000
O139        O  0.52855726  0.09358951  0.43873597    -0.79900
O140        O  0.47733563  0.10648663  0.35490959    -0.81600
O141        O  0.57606536  0.15623211  0.38173776    -0.84400
C142        C  0.51351300  0.09781901  0.45355120     0.96400
C143        C  0.48280978  0.05212233  0.38546651     1.03800
O144        O  0.52209002  0.11445496  0.38531545    -1.13400
O145        O  0.54786107  0.12736890  0.32984599    -0.75800
O146        O  0.54573870  0.09331071  0.34974006    -0.79300
O147        O  0.49657752  0.10093746  0.44173741    -0.80000
C148        C  0.54850737  0.10731795  0.32772229     0.95300
O149        O  0.57097436  0.12258945  0.40402279    -0.77900
O150        O  0.51080616  0.14129938  0.34046859    -0.83100
C151        C  0.51488118  0.16156552  0.40724322     0.97900
C152        C  0.48838817  0.12447784  0.33704839     1.03800
O153        O  0.49604475  0.13987090  0.40673437    -0.78800
C154        C  0.58454870  0.14471778  0.39627663     1.02100
Fe155      Fe  0.44457675  0.90528067  0.36329079     1.65800
Fe156      Fe  0.39784391  0.85469683  0.39729504     1.73200
Fe157      Fe  0.38485786  0.89344198  0.35677728     1.54400
O158        O  0.40771672  0.93169278  0.36125443    -0.82500
O159        O  0.37100480  0.83189099  0.36747034    -0.80800
O160        O  0.44518149  0.93768470  0.37195985    -0.85000
O161        O  0.43729946  0.90614004  0.31851062    -0.79900
O162        O  0.37051576  0.89276880  0.39850321    -0.81600
O163        O  0.42204591  0.84369877  0.37936597    -0.84400
C164        C  0.41802229  0.89978635  0.30277827     0.96400
C165        C  0.43035840  0.94574908  0.36800184     1.03800
O166        O  0.40912126  0.88446417  0.37244565    -1.13400
O167        O  0.42312440  0.87452909  0.42969839    -0.75800
O168        O  0.45530438  0.90627416  0.40714072    -0.79300
O169        O  0.39691993  0.89414817  0.31366986    -0.80000
C170        C  0.44458648  0.89350525  0.43006738     0.95300
O171        O  0.44955626  0.87601716  0.35349121    -0.77900
O172        O  0.37236940  0.86130373  0.41966331    -0.83100
C173        C  0.35511259  0.83542983  0.35402174     0.97900
C174        C  0.36474386  0.87686386  0.41901501     1.03800
O175        O  0.35774223  0.85679821  0.35003646    -0.78800
C176        C  0.44125781  0.85426511  0.36300284     1.02100
Fe177      Fe  0.23259617  0.12082268  0.22444418     1.65800
Fe178      Fe  0.18186684  0.06824621  0.19907233     1.73200
Fe179      Fe  0.22716115  0.06446890  0.23737268     1.54400
O180        O  0.26443782  0.08864910  0.22718674    -0.82500
O181        O  0.16294108  0.04369189  0.23353814    -0.80800
O182        O  0.26696784  0.12459376  0.22103828    -0.85000
O183        O  0.23320355  0.11781127  0.26978139    -0.79900
O184        O  0.22474592  0.04654829  0.19758585    -0.81600
O185        O  0.16853877  0.09099328  0.21443033    -0.84400
C186        C  0.23075149  0.10084589  0.28747132     0.96400
C187        C  0.27718139  0.11156577  0.22182061     1.03800
O188        O  0.21386227  0.08458304  0.22028928    -1.13400
O189        O  0.19845483  0.09121938  0.16307689    -0.75800
O190        O  0.23270594  0.12525546  0.17916204    -0.79300
O191        O  0.22941641  0.08065885  0.27877023    -0.80000
C192        C  0.21774925  0.11220430  0.15870969     0.95300
O193        O  0.20221125  0.12521824  0.22848901    -0.77900
O194        O  0.18952661  0.04272857  0.17945943    -0.83100
C195        C  0.16964078  0.03056049  0.24813531     0.97900
C196        C  0.20668968  0.03723816  0.17945916     1.03800
O197        O  0.19228614  0.03607421  0.24924236    -0.78800
C198        C  0.17917581  0.11314347  0.22357836     1.02100
Fe199      Fe  0.42794974  0.21755392  0.20184723     1.65800
Fe200      Fe  0.47857472  0.21599600  0.22739651     1.73200
Fe201      Fe  0.43495007  0.16771556  0.18777110     1.54400
O202        O  0.39721101  0.15520720  0.19320615    -0.82500
O203        O  0.49788624  0.21304260  0.19163055    -0.80800
O204        O  0.39486863  0.18677949  0.21242443    -0.85000
O205        O  0.42307816  0.21004116  0.15645319    -0.79900
O206        O  0.43519049  0.15228166  0.22800367    -0.81600
O207        O  0.49008482  0.25233660  0.21509777    -0.84400
C208        C  0.42885729  0.19767194  0.13867998     0.96400
C209        C  0.38479018  0.16440698  0.20434854     1.03800
O210        O  0.44708449  0.20056908  0.20564637    -1.13400
O211        O  0.46124386  0.21957549  0.26455825    -0.75800
O212        O  0.43177863  0.22674000  0.24665945    -0.79300
O213        O  0.43461016  0.18170403  0.14692917    -0.80000
C214        C  0.44436872  0.22529439  0.26808706     0.95300
O215        O  0.45818311  0.25105461  0.19122800    -0.77900
O216        O  0.47216111  0.18225205  0.24362823    -0.83100
C217        C  0.49261933  0.19278140  0.17900428     0.97900
C218        C  0.45416391  0.16014644  0.24451626     1.03800
O219        O  0.47064495  0.17441115  0.17887339    -0.78800
C220        C  0.48030333  0.26273403  0.20062859     1.02100
Fe221      Fe  0.11866261  0.88957688  0.03349418     1.65800
Fe222      Fe  0.11808166  0.94014297  0.06095691     1.73200
Fe223      Fe  0.16972437  0.94665946  0.02623922     1.54400
O224        O  0.18147731  0.92052432  0.02920863    -0.82500
O225        O  0.12629624  0.96681834  0.02838607    -0.80800
O226        O  0.14893803  0.88683833  0.04599353    -0.85000
O227        O  0.12784774  0.89278594  0.49173329    -0.79900
O228        O  0.18195537  0.95866933  0.06883860    -0.81600
O229        O  0.08329458  0.91804135  0.04051580    -0.84400
C230        C  0.14084266  0.91167333  0.47539648     0.96400
C231        C  0.17159174  0.89858603  0.03890130     1.03800
O232        O  0.13529042  0.92532918  0.04013288    -1.13400
O233        O  0.10942110  0.91559426  0.09581853    -0.75800
O234        O  0.10714137  0.88124232  0.07731159    -0.79300
O235        O  0.15593314  0.93300337  0.48575160    -0.80000
C236        C  0.10606292  0.89384505  0.09898957     0.95300
O237        O  0.08520005  0.88631009  0.02085037    -0.77900
O238        O  0.15033801  0.96382931  0.08417282    -0.83100
C239        C  0.14780693  0.98202681  0.01856575     0.97900
C240        C  0.17235393  0.96735012  0.08692043     1.03800
O241        O  0.16553436  0.97740032  0.01986893    -0.78800
C242        C  0.07355444  0.89790863  0.02568543     1.02100
Fe243      Fe  0.21139943  0.78745949  0.06470461     1.65800
Fe244      Fe  0.25869427  0.78398842  0.03012522     1.73200
Fe245      Fe  0.26979866  0.83668981  0.06733506     1.54400
O246        O  0.24577328  0.85088518  0.06105513    -0.82500
O247        O  0.28663123  0.79010779  0.05993084    -0.80800
O248        O  0.20876061  0.81841917  0.05911540    -0.85000
O249        O  0.22015713  0.79475149  0.10930703    -0.79900
O250        O  0.28273541  0.84841894  0.02479432    -0.81600
O251        O  0.23501790  0.74870708  0.04785151    -0.84400
C252        C  0.23966855  0.80953169  0.12364937     0.96400
C253        C  0.22253828  0.84141722  0.05763803     1.03800
O254        O  0.24661749  0.80260187  0.05414332    -1.13400
O255        O  0.23959392  0.78276167  0.49490347    -0.75800
O256        O  0.20091086  0.77901424  0.02012213    -0.79300
O257        O  0.25907192  0.82684407  0.11139380    -0.80000
C258        C  0.21718682  0.77798499  0.49327464     0.95300
O259        O  0.20688154  0.75346591  0.07264779    -0.77900
O260        O  0.28344275  0.81527110  0.00691382    -0.83100
C261        C  0.30220469  0.81077374  0.07145276     0.97900
C262        C  0.28955195  0.83796152  0.00561496     1.03800
O263        O  0.29813221  0.82878969  0.07406653    -0.78800
C264        C  0.21500718  0.73990075  0.06282405     1.02100
Fe265      Fe  0.21512750  0.78417912  0.31029889     1.65800
Fe266      Fe  0.16263172  0.72900089  0.31761388     1.73200
Fe267      Fe  0.21342741  0.73359578  0.28342240     1.54400
O268        O  0.23427079  0.76439704  0.25657288    -0.82500
O269        O  0.16991228  0.70428592  0.33851151    -0.80800
O270        O  0.21987221  0.78991519  0.26476028    -0.85000
O271        O  0.24917950  0.78539480  0.31410992    -0.79900
O272        O  0.18615657  0.72141871  0.25196118    -0.81600
O273        O  0.17060838  0.74812042  0.35810530    -0.84400
C274        C  0.25640869  0.76974863  0.31820899     0.96400
C275        C  0.23029831  0.78143979  0.24768565     1.03800
O276        O  0.19695360  0.74874383  0.30429867    -1.13400
O277        O  0.15155551  0.75188247  0.29806760    -0.75800
O278        O  0.18424457  0.78863768  0.30778972    -0.79300
O279        O  0.24232328  0.74670381  0.31370704    -0.80000
C280        C  0.16166793  0.77517638  0.30040262     0.95300
O281        O  0.21032559  0.77863544  0.35547717    -0.77900
O282        O  0.15170405  0.70661845  0.27932838    -0.83100
C283        C  0.17867465  0.69150444  0.32751035     0.97900
C284        C  0.16318580  0.70660936  0.25571180     1.03800
O285        O  0.19428708  0.69958293  0.30617950    -0.78800
C286        C  0.19090227  0.76418785  0.37020307     1.02100
Fe287      Fe  0.11990768  0.88498001  0.28529931     1.65800
Fe288      Fe  0.06334266  0.83329486  0.27405504     1.73200
Fe289      Fe  0.06706011  0.88166263  0.31303101     1.54400
O290        O  0.08984204  0.88769576  0.34891523    -0.82500
O291        O  0.03343809  0.83841687  0.26569442    -0.80800
O292        O  0.12596447  0.89313059  0.33067218    -0.85000
O293        O  0.12234249  0.91857890  0.27697995    -0.79900
O294        O  0.04137620  0.84799833  0.33152910    -0.81600
O295        O  0.07700963  0.84699149  0.23223239    -0.84400
C296        C  0.11040987  0.92922128  0.28497261     0.96400
C297        C  0.11228780  0.89284527  0.35217529     1.03800
O298        O  0.08366878  0.86672079  0.29091972    -1.13400
O299        O  0.08923351  0.82189031  0.27999783    -0.75800
O300        O  0.12444990  0.85499903  0.29315831    -0.79300
O301        O  0.08974713  0.91787962  0.29845991    -0.80000
C302        C  0.11166175  0.83205510  0.28825996     0.95300
O303        O  0.11585398  0.87840832  0.23934844    -0.77900
O304        O  0.04769260  0.81778531  0.31469764    -0.83100
C305        C  0.02847310  0.85587936  0.26633576     0.97900
C306        C  0.03685677  0.82571791  0.33187551     1.03800
O307        O  0.04293736  0.87644622  0.27862223    -0.78800
C308        C  0.09755086  0.86449120  0.22253294     1.02100
Fe309      Fe  0.89305119  0.45376193  0.14357287     1.65800
Fe310      Fe  0.88683410  0.50488304  0.15388946     1.73200
Fe311      Fe  0.84339766  0.45573825  0.11419219     1.54400
O312        O  0.86080611  0.44908847  0.07904502    -0.82500
O313        O  0.85146411  0.49878610  0.16288384    -0.80800
O314        O  0.89171251  0.44489489  0.09861525    -0.85000
O315        O  0.86219546  0.41998322  0.15177465    -0.79900
O316        O  0.85125692  0.48877829  0.09442366    -0.81600
O317        O  0.88755948  0.49223414  0.19596575    -0.84400
C318        C  0.83996830  0.40887256  0.14270733     0.96400
C319        C  0.87833263  0.44410408  0.07669929     1.03800
O320        O  0.87450898  0.47137966  0.13715143    -1.13400
O321        O  0.92445412  0.51716070  0.14772543    -0.75800
O322        O  0.92731767  0.48414910  0.13572070    -0.79300
O323        O  0.83035204  0.41988200  0.12924556    -0.80000
C324        C  0.93716530  0.50715100  0.14026049     0.95300
O325        O  0.89510765  0.46080192  0.18929659    -0.77900
O326        O  0.88627051  0.51975615  0.11317269    -0.83100
C327        C  0.82918751  0.48116362  0.16139491     0.97900
C328        C  0.86864073  0.51115303  0.09447393     1.03800
O329        O  0.82343772  0.46116891  0.14764815    -0.78800
C330        C  0.89111567  0.47516588  0.20591281     1.02100
Fe331      Fe  0.08652167  0.54722582  0.11739591     1.65800
Fe332      Fe  0.09344869  0.60415224  0.10781918     1.73200
Fe333      Fe  0.13689902  0.59644564  0.14354244     1.54400
O334        O  0.12473554  0.56618475  0.17198847    -0.82500
O335        O  0.12615091  0.62626391  0.08643284    -0.80800
O336        O  0.08462097  0.54214116  0.16326369    -0.85000
O337        O  0.11806303  0.54323610  0.11449059    -0.79900
O338        O  0.12343583  0.61147036  0.17345238    -0.81600
O339        O  0.08127807  0.58402431  0.06792839    -0.84400
C340        C  0.14115612  0.55798209  0.11025496     0.96400
C341        C  0.10310818  0.55032128  0.18080360     1.03800
O342        O  0.10563520  0.58273439  0.12256523    -1.13400
O343        O  0.05895987  0.58362212  0.12807725    -0.75800
O344        O  0.05217993  0.54561366  0.11933548    -0.79300
O345        O  0.15108675  0.58110043  0.11443611    -0.80000
C346        C  0.04444678  0.56039352  0.12662308     0.95300
O347        O  0.08828753  0.55212756  0.07182762    -0.77900
O348        O  0.10685766  0.62837856  0.14472432    -0.83100
C349        C  0.14777130  0.63785704  0.09712754     0.97900
C350        C  0.11838273  0.62838207  0.16820308     1.03800
O351        O  0.15397233  0.62938992  0.11909062    -0.78800
C352        C  0.08456044  0.56706910  0.05632729     1.02100
Fe353      Fe  0.78305467  0.57469804  0.45435249     1.65800
Fe354      Fe  0.83326381  0.56738947  0.44328754     1.73200
Fe355      Fe  0.78411701  0.52479519  0.48302634     1.54400
O356        O  0.77498025  0.54451820  0.01536126    -0.82500
O357        O  0.82756800  0.53219894  0.43659478    -0.80800
O358        O  0.77248512  0.57173696  0.49869617    -0.85000
O359        O  0.74985304  0.54444443  0.44344530    -0.79900
O360        O  0.81347705  0.53295390  0.00177224    -0.81600
O361        O  0.81914050  0.56597989  0.40125416    -0.84400
C362        C  0.73806216  0.52254292  0.45311066     0.96400
C363        C  0.77073953  0.56245524  0.01773773     1.03800
O364        O  0.80006087  0.55571652  0.46039976    -1.13400
O365        O  0.84542512  0.60509761  0.44712705    -0.75800
O366        O  0.81363386  0.60787127  0.46514040    -0.79300
O367        O  0.74823467  0.51284773  0.46817719    -0.80000
C368        C  0.83617748  0.61773288  0.45752254     0.95300
O369        O  0.79138443  0.57857466  0.40901598    -0.77900
O370        O  0.84836499  0.56789044  0.48451822    -0.83100
C371        C  0.80945681  0.51028307  0.43745132     0.97900
C372        C  0.83980928  0.54984563  0.50266859     1.03800
O373        O  0.78881072  0.50500877  0.44923487    -0.78800
C374        C  0.80323763  0.57162183  0.39190232     1.02100
Fe375      Fe  0.88156458  0.76862575  0.47674003     1.65800
Fe376      Fe  0.93957586  0.77578666  0.48103797     1.73200
Fe377      Fe  0.92973064  0.81665475  0.44007651     1.54400
O378        O  0.90170159  0.79700737  0.40957279    -0.82500
O379        O  0.96674042  0.81429283  0.99224726    -0.80800
O380        O  0.87137556  0.76366722  0.43240871    -0.85000
O381        O  0.87732128  0.79906688  0.48022795    -0.79900
O382        O  0.95202514  0.80727789  0.41547891    -0.81600
O383        O  0.92470687  0.77394840  0.02474779    -0.84400
C384        C  0.88950466  0.82186972  0.47447759     0.96400
C385        C  0.88135232  0.77653468  0.40928918     1.03800
O386        O  0.91712383  0.78721773  0.46607711    -1.13400
O387        O  0.91564745  0.73848418  0.47036355    -0.75800
O388        O  0.87840825  0.73431165  0.47592291    -0.79300
O389        O  0.91001420  0.83152057  0.46069694    -0.80000
C390        C  0.89213912  0.72508095  0.47093660     0.95300
O391        O  0.88840824  0.77320238  0.02181078    -0.77900
O392        O  0.95639221  0.77884273  0.44018802    -0.83100
C393        C  0.97267141  0.83390824  0.48484809     0.97900
C394        C  0.96085890  0.79285684  0.41789596     1.03800
O395        O  0.95949572  0.83865613  0.46743177    -0.78800
C396        C  0.90572839  0.77316796  0.03677054     1.02100
Fe397      Fe  0.88006841  0.76769888  0.22603136     1.65800
Fe398      Fe  0.88344115  0.82050941  0.20095548     1.73200
Fe399      Fe  0.83075985  0.77537000  0.23437142     1.54400
O400        O  0.81774727  0.74162860  0.21283668    -0.82500
O401        O  0.87030624  0.83813045  0.22975440    -0.80800
O402        O  0.84771522  0.73417109  0.22477732    -0.85000
O403        O  0.87647062  0.76894727  0.27140227    -0.79900
O404        O  0.82013441  0.78731833  0.19703057    -0.81600
O405        O  0.91543973  0.83195294  0.22634942    -0.84400
C406        C  0.85700748  0.76394323  0.28624460     0.96400
C407        C  0.82595275  0.72676614  0.21555671     1.03800
O408        O  0.86480384  0.78823654  0.22062445    -1.13400
O409        O  0.89660560  0.80599265  0.16846156    -0.75800
O410        O  0.88386290  0.76653761  0.18033504    -0.79300
O411        O  0.83759927  0.76204400  0.27396124    -0.80000
C412        C  0.89232180  0.78431596  0.16171043     0.95300
O413        O  0.91547286  0.79656514  0.22913155    -0.77900
O414        O  0.85467386  0.81336408  0.17259760    -0.83100
C415        C  0.85227671  0.83054195  0.24820767     0.97900
C416        C  0.83125134  0.80183561  0.17551828     1.03800
O417        O  0.83984731  0.80808017  0.25638154    -0.78800
C418        C  0.92668972  0.81983486  0.23059423     1.02100
Fe419      Fe  0.77790445  0.57518780  0.20338340     1.65800
Fe420      Fe  0.72543575  0.52549889  0.22909804     1.73200
Fe421      Fe  0.72149521  0.57071796  0.19261323     1.54400
O422        O  0.74809879  0.60776881  0.19596296    -0.82500
O423        O  0.70148026  0.50801580  0.19419804    -0.80800
O424        O  0.78143596  0.60884586  0.21466526    -0.85000
O425        O  0.77393847  0.57999670  0.15794415    -0.79900
O426        O  0.70787118  0.57138599  0.23456558    -0.81600
O427        O  0.74797391  0.51218698  0.21280685    -0.84400
C428        C  0.75541814  0.57494845  0.14106446     0.96400
C429        C  0.76997998  0.61969321  0.20596874     1.03800
O430        O  0.74187072  0.55719855  0.20836803    -1.13400
O431        O  0.74792534  0.54076195  0.26557126    -0.75800
O432        O  0.78400308  0.57122453  0.24819800    -0.79300
O433        O  0.73406639  0.56988447  0.15064762    -0.80000
C434        C  0.77028588  0.55771497  0.26940397     0.95300
O435        O  0.78045982  0.54434111  0.19206740    -0.77900
O436        O  0.70054256  0.53400315  0.24902920    -0.83100
C437        C  0.68648210  0.51426760  0.18365965     0.97900
C438        C  0.69746570  0.55264794  0.25159514     1.03800
O439        O  0.69072798  0.53635679  0.18504482    -0.78800
C440        C  0.76848990  0.52165860  0.19899732     1.02100
Fe441      Fe  0.54638700  0.45459198  0.39304455     1.65800
Fe442      Fe  0.59931689  0.45631366  0.36790545     1.73200
Fe443      Fe  0.60252392  0.50639039  0.40274198     1.54400
O444        O  0.57692295  0.51796298  0.39346719    -0.82500
O445        O  0.62370710  0.46376417  0.40270016    -0.80800
O446        O  0.54157218  0.48428641  0.38543469    -0.85000
O447        O  0.55028794  0.46129380  0.43857133    -0.79900
O448        O  0.61815268  0.51968348  0.36158882    -0.81600
O449        O  0.57708978  0.42104688  0.38558599    -0.84400
C450        C  0.56812300  0.47631616  0.45518482     0.96400
C451        C  0.55413599  0.50747376  0.38666714     1.03800
O452        O  0.58258047  0.47233161  0.38779103    -1.13400
O453        O  0.57625503  0.44787631  0.33167828    -0.75800
O454        O  0.54137301  0.44685497  0.34768938    -0.79300
O455        O  0.58833085  0.49427883  0.44521314    -0.80000
C456        C  0.55481735  0.44521891  0.32715887     0.95300
O457        O  0.54326690  0.42111222  0.40154100    -0.77900
O458        O  0.62425458  0.48890234  0.34621170    -0.83100
C459        C  0.63758417  0.48459136  0.41473413     0.97900
C460        C  0.62795822  0.51087273  0.34407999     1.03800
O461        O  0.63245929  0.50189461  0.41338055    -0.78800
C462        C  0.55549560  0.41024426  0.39686457     1.02100
Fe463      Fe  0.44684935  0.54973087  0.36454698     1.65800
Fe464      Fe  0.44695304  0.60150715  0.39004306     1.73200
Fe465      Fe  0.49518587  0.60695506  0.34749345     1.54400
O466        O  0.50938671  0.58293097  0.35306710    -0.82500
O467        O  0.45159753  0.62675407  0.35733011    -0.80800
O468        O  0.47865055  0.54844844  0.37169653    -0.85000
O469        O  0.45175624  0.55140622  0.31908557    -0.79900
O470        O  0.51197740  0.62461326  0.38718463    -0.81600
O471        O  0.41100908  0.57812144  0.37407595    -0.84400
C472        C  0.46281166  0.56856675  0.30011312     0.96400
C473        C  0.50099645  0.56140829  0.36373046     1.03800
O474        O  0.46291610  0.58603713  0.36734733    -1.13400
O475        O  0.44123307  0.57882194  0.42579096    -0.75800
O476        O  0.44056129  0.54468463  0.40923546    -0.79300
O477        O  0.47918553  0.59060392  0.30716380    -0.80000
C478        C  0.43904178  0.55768634  0.42992857     0.95300
O479        O  0.41184073  0.54470024  0.35820553    -0.77900
O480        O  0.48047084  0.62647023  0.40937865    -0.83100
C481        C  0.47107816  0.64078909  0.34268779     0.97900
C482        C  0.50326236  0.63242008  0.40766950     1.03800
O483        O  0.48820112  0.63559582  0.33829796    -0.78800
C484        C  0.40031678  0.55636839  0.36325765     1.02100
Fe485      Fe  0.56521826  0.78277728  0.05735813     1.65800
Fe486      Fe  0.51359879  0.73399098  0.02839552     1.73200
Fe487      Fe  0.55603279  0.72447630  0.06700370     1.54400
O488        O  0.59287063  0.74595030  0.05442634    -0.82500
O489        O  0.49351322  0.70441852  0.05629243    -0.80800
O490        O  0.59862246  0.78396121  0.05242389    -0.85000
O491        O  0.56563448  0.77789164  0.10226313    -0.79900
O492        O  0.54980454  0.70562218  0.02692449    -0.81600
O493        O  0.50025661  0.75361570  0.05237733    -0.84400
C494        C  0.56652532  0.76196181  0.11890885     0.96400
C495        C  0.60685499  0.76903927  0.05160320     1.03800
O496        O  0.54487667  0.74692049  0.05103069    -1.13400
O497        O  0.53581109  0.76292727  0.49569880    -0.75800
O498        O  0.56696273  0.79031303  0.01301602    -0.79300
O499        O  0.56371140  0.74162700  0.10862158    -0.80000
C500        C  0.55760496  0.78127287  0.49222880     0.95300
O501        O  0.53513996  0.78795297  0.06335713    -0.77900
O502        O  0.52274797  0.71255470  0.00200255    -0.83100
C503        C  0.49878271  0.69210240  0.07429732     0.97900
C504        C  0.53634106  0.70268454  0.00429608     1.03800
O505        O  0.52090206  0.69856183  0.08184359    -0.78800
C506        C  0.51161007  0.77542090  0.06272144     1.02100
Fe507      Fe  0.75298561  0.87737393  0.03052762     1.65800
Fe508      Fe  0.80676558  0.88487870  0.05654553     1.73200
Fe509      Fe  0.76549526  0.83025141  0.02319361     1.54400
O510        O  0.72827641  0.81427962  0.03542544    -0.82500
O511        O  0.82774356  0.87611171  0.02863199    -0.80800
O512        O  0.72014886  0.84469582  0.03004499    -0.85000
O513        O  0.75816961  0.87572456  0.48505014    -0.79900
O514        O  0.77224263  0.82021639  0.06545892    -0.81600
O515        O  0.81638958  0.91539433  0.03006357    -0.84400
C516        C  0.76129928  0.86072654  0.46851325     0.96400
C517        C  0.71314052  0.82231364  0.03494671     1.03800
O518        O  0.77512453  0.86387007  0.03663447    -1.13400
O519        O  0.78933119  0.89550006  0.08868526    -0.75800
O520        O  0.74941958  0.87938362  0.07563354    -0.79300
O521        O  0.76305652  0.84236757  0.47862378    -0.80000
C522        C  0.76671900  0.88877434  0.09476117     0.95300
O523        O  0.78039665  0.91408288  0.03025172    -0.77900
O524        O  0.80087371  0.85650716  0.08379048    -0.83100
C525        C  0.82290488  0.85692227  0.01375972     0.97900
C526        C  0.78741442  0.83325516  0.08599313     1.03800
O527        O  0.80096809  0.83930841  0.00960353    -0.78800
C528        C  0.80351635  0.92563382  0.02557205     1.02100
Fe529      Fe  0.87580998  0.12655599  0.22703441     1.65800
Fe530      Fe  0.92371156  0.12410429  0.19300769     1.73200
Fe531      Fe  0.93471852  0.17507895  0.23379976     1.54400
O532        O  0.91129372  0.18961535  0.22960485    -0.82500
O533        O  0.95032237  0.12824075  0.22435202    -0.80800
O534        O  0.87399794  0.15789345  0.21973996    -0.85000
O535        O  0.88308255  0.13424471  0.27195015    -0.79900
O536        O  0.94852008  0.18867919  0.19232267    -0.81600
O537        O  0.89930331  0.08849363  0.20880556    -0.84400
C538        C  0.90222997  0.14776535  0.28759054     0.96400
C539        C  0.88858022  0.18072707  0.22332428     1.03800
O540        O  0.91132321  0.14185012  0.21794885    -1.13400
O541        O  0.89865830  0.11918890  0.15974670    -0.75800
O542        O  0.86564024  0.11746658  0.18263479    -0.79300
O543        O  0.92292585  0.16383901  0.27673061    -0.80000
C544        C  0.87680638  0.11623436  0.15939069     0.95300
O545        O  0.87169045  0.09254333  0.23592451    -0.77900
O546        O  0.94947621  0.15631812  0.17211992    -0.83100
C547        C  0.96568597  0.14794083  0.23799262     0.97900
C548        C  0.95577459  0.17908554  0.17260266     1.03800
O549        O  0.96243046  0.16644515  0.24041644    -0.78800
C550        C  0.87991044  0.07931689  0.22493453     1.02100
Fe551      Fe  0.78160908  0.22096045  0.19369204     1.65800
Fe552      Fe  0.77905383  0.27021649  0.22189025     1.73200
Fe553      Fe  0.83064756  0.27879828  0.18587281     1.54400
O554        O  0.84420591  0.25490793  0.19472475    -0.82500
O555        O  0.78192718  0.29237597  0.18597249    -0.80800
O556        O  0.81187793  0.21891798  0.20735520    -0.85000
O557        O  0.79273203  0.22495083  0.14948040    -0.79900
O558        O  0.84369786  0.29456333  0.22699925    -0.81600
O559        O  0.74318416  0.24278594  0.20847499    -0.84400
C560        C  0.80521596  0.24377871  0.13315711     0.96400
C561        C  0.83502860  0.23296304  0.20440396     1.03800
O562        O  0.79720711  0.25650586  0.20071130    -1.13400
O563        O  0.77590136  0.24920118  0.25841307    -0.75800
O564        O  0.76860563  0.21333443  0.23770812    -0.79300
O565        O  0.81979765  0.26519337  0.14346743    -0.80000
C566        C  0.77016581  0.22660067  0.26026433     0.95300
O567        O  0.74986586  0.21887106  0.17790502    -0.77900
O568        O  0.81169344  0.29931557  0.24010170    -0.83100
C569        C  0.80235698  0.30805074  0.17394975     0.97900
C570        C  0.83447215  0.30508012  0.24243954     1.03800
O571        O  0.82177221  0.30600016  0.17569663    -0.78800
C572        C  0.73524670  0.22457445  0.19053085     1.02100
Fe573      Fe  0.10803401  0.23902766  0.03709788     1.65800
Fe574      Fe  0.05600774  0.18904192  0.06311455     1.73200
Fe575      Fe  0.05154313  0.23323412  0.02440604     1.54400
O576        O  0.07761723  0.27070284  0.02815567    -0.82500
O577        O  0.03185851  0.17017389  0.02876633    -0.80800
O578        O  0.11014172  0.27167172  0.04918344    -0.85000
O579        O  0.10411096  0.24198233  0.49063698    -0.79900
O580        O  0.03752890  0.23435659  0.06542518    -0.81600
O581        O  0.07991634  0.17648907  0.04820482    -0.84400
C582        C  0.08550645  0.23479178  0.47326314     0.96400
C583        C  0.09868650  0.28245423  0.04046455     1.03800
O584        O  0.07202105  0.22032303  0.04140287    -1.13400
O585        O  0.07805528  0.20537044  0.09947145    -0.75800
O586        O  0.11409572  0.23532631  0.08143168    -0.79300
O587        O  0.06370824  0.22855888  0.48224489    -0.80000
C588        C  0.10041893  0.22235803  0.10278176     0.95300
O589        O  0.11130921  0.20873206  0.02583468    -0.77900
O590        O  0.03056208  0.19751948  0.08181498    -0.83100
C591        C  0.01671775  0.17607292  0.01774177     0.97900
C592        C  0.02733342  0.21615927  0.08312777     1.03800
O593        O  0.02122099  0.19830618  0.01731841    -0.78800
C594        C  0.10051449  0.18640658  0.03428959     1.02100
Fe595      Fe  0.20353194  0.43136853  0.05609211     1.65800
Fe596      Fe  0.20246932  0.47998835  0.02515691     1.73200
Fe597      Fe  0.15534963  0.44035578  0.06977568     1.54400
O598        O  0.14328470  0.40218599  0.06874455    -0.82500
O599        O  0.20064027  0.50232132  0.05781688    -0.80800
O600        O  0.17222576  0.40042880  0.04243461    -0.85000
O601        O  0.19326117  0.42509184  0.10135862    -0.79900
O602        O  0.13835539  0.43784177  0.02946398    -0.81600
O603        O  0.23881083  0.49067781  0.03794869    -0.84400
C604        C  0.18250595  0.43245601  0.11973282     0.96400
C605        C  0.15144369  0.38965969  0.05527282     1.03800
O606        O  0.18743789  0.45091317  0.05058227    -1.13400
O607        O  0.20499623  0.45824158  0.49143293    -0.75800
O608        O  0.21573232  0.43491688  0.01217320    -0.79300
O609        O  0.17062907  0.44283279  0.11068070    -0.80000
C610        C  0.21224973  0.44251320  0.48942397     0.95300
O611        O  0.23670771  0.46142663  0.06837341    -0.77900
O612        O  0.16823863  0.47259672  0.00871763    -0.83100
C613        C  0.18103900  0.49824637  0.07147139     0.97900
C614        C  0.14588894  0.45494808  0.01017023     1.03800
O615        O  0.16257698  0.47658694  0.07490228    -0.78800
C616        C  0.24888916  0.48206909  0.05522975     1.02100
Fe617      Fe  0.89403577  0.44771737  0.39451457     1.65800
Fe618      Fe  0.84151030  0.40019946  0.36584195     1.73200
Fe619      Fe  0.88271270  0.38914227  0.40213457     1.54400
O620        O  0.92085107  0.41353083  0.40175983    -0.82500
O621        O  0.82028693  0.37341338  0.39696868    -0.80800
O622        O  0.92396799  0.44594657  0.37865554    -0.85000
O623        O  0.89936502  0.44109663  0.43918394    -0.79900
O624        O  0.88412973  0.37862161  0.35835187    -0.81600
O625        O  0.83173906  0.42421528  0.38591079    -0.84400
C626        C  0.89120423  0.42199484  0.45592362     0.96400
C627        C  0.93381931  0.43431763  0.38949349     1.03800
O628        O  0.87234155  0.41245207  0.38805038    -1.13400
O629        O  0.85886817  0.42500834  0.33226156    -0.75800
O630        O  0.89096429  0.45824956  0.35142976    -0.79300
O631        O  0.88197427  0.40005636  0.44547953    -0.80000
C632        C  0.87686080  0.44682696  0.32964494     0.95300
O633        O  0.86583144  0.45333548  0.40877177    -0.77900
O634        O  0.84883495  0.37588278  0.34193393    -0.83100
C635        C  0.82457713  0.35653678  0.40545227     0.97900
C636        C  0.86736800  0.37244638  0.33851254     1.03800
O637        O  0.84649312  0.35979051  0.40617401    -0.78800
C638        C  0.84327116  0.44393892  0.40117186     1.02100
Fe639      Fe  0.08261748  0.54232319  0.36611963     1.65800
Fe640      Fe  0.13253660  0.54430230  0.40045877     1.73200
Fe641      Fe  0.09203910  0.49304486  0.35991353     1.54400
O642        O  0.05450505  0.47877494  0.36982214    -0.82500
O643        O  0.15476147  0.53809746  0.37138783    -0.80800
O644        O  0.04927520  0.51102537  0.36870608    -0.85000
O645        O  0.08506453  0.53732458  0.32139315    -0.79900
O646        O  0.09464169  0.47939941  0.40082748    -0.81600
O647        O  0.14557652  0.57956428  0.38221740    -0.84400
C648        C  0.08800574  0.52197924  0.30563394     0.96400
C649        C  0.04065519  0.48826182  0.37228188     1.03800
O650        O  0.10256353  0.52660956  0.37539407    -1.13400
O651        O  0.11281510  0.55116581  0.43214214    -0.75800
O652        O  0.07886875  0.54836503  0.41087210    -0.79300
O653        O  0.08913615  0.50369084  0.31660307    -0.80000
C654        C  0.09257197  0.55160940  0.43335591     0.95300
O655        O  0.11228595  0.57685556  0.36131197    -0.77900
O656        O  0.12464029  0.51261439  0.42355955    -0.83100
C657        C  0.15007711  0.51924363  0.35571941     0.97900
C658        C  0.10969329  0.48948652  0.42220448     1.03800
O659        O  0.12818810  0.50193511  0.35003029    -0.78800
C660        C  0.13475072  0.58943055  0.36874527     1.02100
Fe661      Fe  0.75601318  0.88587847  0.28097185     1.65800
Fe662      Fe  0.76390654  0.94227776  0.26745226     1.73200
Fe663      Fe  0.80733811  0.93484767  0.30412498     1.54400
O664        O  0.79465884  0.90521642  0.33399702    -0.82500
O665        O  0.79667542  0.96254788  0.24460777    -0.80800
O666        O  0.75409930  0.88319134  0.32701604    -0.85000
O667        O  0.78689318  0.88090290  0.28061753    -0.79900
O668        O  0.79472011  0.95140533  0.33334419    -0.81600
O669        O  0.75015447  0.92013529  0.22934462    -0.84400
C670        C  0.80975277  0.89397317  0.27372048     0.96400
C671        C  0.77292990  0.89055341  0.34385975     1.03800
O672        O  0.77575250  0.92121804  0.28387756    -1.13400
O673        O  0.72954077  0.92323275  0.28837496    -0.75800
O674        O  0.72201393  0.88483636  0.28072403    -0.79300
O675        O  0.82066030  0.91746561  0.27561809    -0.80000
C676        C  0.71465749  0.90009323  0.28668358     0.95300
O677        O  0.75809603  0.88912200  0.23520118    -0.77900
O678        O  0.77781769  0.96748265  0.30345675    -0.83100
C679        C  0.81787493  0.97533984  0.25622230     0.97900
C680        C  0.78866999  0.96764592  0.32764474     1.03800
O681        O  0.82435870  0.96751349  0.27869544    -0.78800
C682        C  0.75336432  0.90288337  0.21868728     1.02100
Fe683      Fe  0.56788880  0.78776770  0.30784989     1.65800
Fe684      Fe  0.55767377  0.83546000  0.31826206     1.73200
Fe685      Fe  0.51779760  0.78623294  0.27737780     1.54400
O686        O  0.53306855  0.77117236  0.24832442    -0.82500
O687        O  0.52383957  0.82105048  0.33841182    -0.80800
O688        O  0.57235126  0.78603125  0.26257384    -0.85000
O689        O  0.53678432  0.75176060  0.30842540    -0.79900
O690        O  0.53180131  0.81578836  0.24992502    -0.81600
O691        O  0.57023315  0.82783805  0.35788434    -0.84400
C692        C  0.51318658  0.74244689  0.30926891     0.96400
C693        C  0.55551226  0.77718329  0.24286597     1.03800
O694        O  0.54777914  0.80310887  0.30135306    -1.13400
O695        O  0.59281576  0.85157325  0.29931856    -0.75800
O696        O  0.60160472  0.82152717  0.30809362    -0.79300
O697        O  0.50267351  0.75498011  0.30340858    -0.80000
C698        C  0.60830799  0.84392000  0.30157946     0.95300
O699        O  0.56430582  0.78953823  0.35334979    -0.77900
O700        O  0.54452961  0.84698105  0.28175369    -0.83100
C701        C  0.50343533  0.81348547  0.32520620     0.97900
C702        C  0.53552579  0.83702863  0.25663027     1.03800
O703        O  0.49845201  0.80052215  0.30160740    -0.78800
C704        C  0.56774775  0.80797321  0.36916918     1.02100
Fe705      Fe  0.54078223  0.09468011  0.14278401     1.65800
Fe706      Fe  0.59847226  0.10321228  0.15162122     1.73200
Fe707      Fe  0.58881904  0.14397130  0.11364464     1.54400
O708        O  0.55683003  0.13032981  0.08793675    -0.82500
O709        O  0.62039297  0.13676780  0.17143921    -0.80800
O710        O  0.53523813  0.09047471  0.09686991    -0.85000
O711        O  0.53648850  0.12611476  0.14332051    -0.79900
O712        O  0.60235754  0.12909720  0.08341695    -0.81600
O713        O  0.57886542  0.09194676  0.19211043    -0.84400
C714        C  0.55108555  0.14939904  0.14608866     0.96400
C715        C  0.54236322  0.10848381  0.07891823     1.03800
O716        O  0.57618366  0.11401789  0.13663572    -1.13400
O717        O  0.57801856  0.06819242  0.13343272    -0.75800
O718        O  0.53982910  0.06079096  0.14393844    -0.79300
O719        O  0.57440845  0.15914078  0.14268220    -0.80000
C720        C  0.55498566  0.05338767  0.13717284     0.95300
O721        O  0.54648127  0.09841613  0.18805090    -0.77900
O722        O  0.62146343  0.11537087  0.11310773    -0.83100
C723        C  0.63217375  0.15733443  0.15841732     0.97900
C724        C  0.61982308  0.12469248  0.08845250     1.03800
O725        O  0.62325822  0.16216830  0.13566134    -0.78800
C726        C  0.56152253  0.09480384  0.20363183     1.02100
Fe727      Fe  0.44803821  0.90631104  0.11525373     1.65800
Fe728      Fe  0.49793182  0.89770481  0.10561128     1.73200
Fe729      Fe  0.44516201  0.85495304  0.14000389     1.54400
O730        O  0.42650457  0.86713862  0.16747411    -0.82500
O731        O  0.49015707  0.86401177  0.08748902    -0.80800
O732        O  0.44443571  0.90741149  0.16117818    -0.85000
O733        O  0.41243028  0.87547094  0.11108937    -0.79900
O734        O  0.47275711  0.86723497  0.17107337    -0.81600
O735        O  0.48891288  0.90698103  0.06440667    -0.84400
C736        C  0.40376433  0.85248370  0.10604792     0.96400
C737        C  0.43312366  0.88848264  0.17766458     1.03800
O738        O  0.46398041  0.88629146  0.11960446    -1.13400
O739        O  0.51190595  0.93332848  0.12198286    -0.75800
O740        O  0.48015055  0.94018534  0.11817385    -0.79300
O741        O  0.41661504  0.84200354  0.10974972    -0.80000
C742        C  0.50295937  0.94770822  0.12238407     0.95300
O743        O  0.45222128  0.90595018  0.06980574    -0.77900
O744        O  0.50822560  0.88751719  0.14540468    -0.83100
C745        C  0.47712215  0.84225901  0.09745139     0.97900
C746        C  0.49587202  0.87537249  0.16823774     1.03800
O747        O  0.46042306  0.83682340  0.11690201    -0.78800
C748        C  0.46975514  0.90701113  0.05377924     1.02100
Fe749      Fe  0.87289784  0.12116303  0.47432350     1.65800
Fe750      Fe  0.82377369  0.06341779  0.48295528     1.73200
Fe751      Fe  0.87603215  0.07316516  0.44735902     1.54400
O752        O  0.89416698  0.10439130  0.42077964    -0.82500
O753        O  0.82837976  0.03731762  0.00204244    -0.80800
O754        O  0.87542157  0.12606891  0.42858072    -0.85000
O755        O  0.90839128  0.12588618  0.47630606    -0.79900
O756        O  0.84862644  0.05844412  0.41623113    -0.81600
O757        O  0.82800546  0.08042120  0.02543546    -0.84400
C758        C  0.91745033  0.11177577  0.48042876     0.96400
C759        C  0.88707532  0.11904733  0.41144176     1.03800
O760        O  0.85736015  0.08559734  0.46886990    -1.13400
O761        O  0.80974654  0.08463015  0.46608873    -0.75800
O762        O  0.84068089  0.12286117  0.47330007    -0.79300
O763        O  0.90471637  0.08848916  0.47730606    -0.80000
C764        C  0.81833393  0.10772536  0.46701995     0.95300
O765        O  0.86544606  0.11491804  0.02185409    -0.77900
O766        O  0.81362503  0.04279968  0.44284289    -0.83100
C767        C  0.84406112  0.02875439  0.48971339     0.97900
C768        C  0.82573452  0.04313690  0.41952917     1.03800
O769        O  0.86039802  0.03931466  0.46962591    -0.78800
C770        C  0.84721864  0.09877652  0.03713354     1.02100
Fe771      Fe  0.77877921  0.21566604  0.44340742     1.65800
Fe772      Fe  0.72198530  0.16556563  0.43369903     1.73200
Fe773      Fe  0.72978418  0.21255340  0.47711098     1.54400
O774        O  0.75938155  0.23351172  0.00346728    -0.82500
O775        O  0.70058693  0.17846673  0.41539033    -0.80800
O776        O  0.78769748  0.21933132  0.48840874    -0.85000
O777        O  0.77972815  0.24970882  0.44251720    -0.79900
O778        O  0.71541442  0.18701364  0.00544966    -0.81600
O779        O  0.74140272  0.17407749  0.39320821    -0.84400
C780        C  0.76365301  0.25688804  0.44165040     0.96400
C781        C  0.77774022  0.23037572  0.00883680     1.03800
O782        O  0.74366335  0.19808014  0.45084529    -1.13400
O783        O  0.74308882  0.15152229  0.45043548    -0.75800
O784        O  0.78121784  0.18353850  0.44255866    -0.79300
O785        O  0.74139302  0.24343896  0.45064171    -0.80000
C786        C  0.76644210  0.16076716  0.44805881     0.95300
O787        O  0.77173399  0.21292354  0.39877433    -0.77900
O788        O  0.69839952  0.15303145  0.47185563    -0.83100
C789        C  0.68730066  0.18425955  0.43104400     0.97900
C790        C  0.70141200  0.16243333  0.49788383     1.03800
O791        O  0.69493998  0.19536940  0.45586561    -0.78800
C792        C  0.75783328  0.19463731  0.38234573     1.02100
C793        C  0.78797377  0.12014020  0.48408656    -0.02700
C794        C  0.80195189  0.11781572  0.46084430     0.07000
C795        C  0.80248806  0.12769431  0.43260249    -0.02800
C796        C  0.79035162  0.14138691  0.42813742    -0.02800
C797        C  0.77710183  0.14452615  0.45177158     0.07100
C798        C  0.77506779  0.13304295  0.47936165    -0.03000
Br799      Br  0.75575390  0.13614336  0.51115946    -0.01500
Br800      Br  0.78785177  0.10697651  0.52286823    -0.01600
Br801      Br  0.79173908  0.15563238  0.38961006    -0.01600
Br802      Br  0.82019524  0.12268676  0.40031317    -0.01600
C803        C  0.64917605  0.11921352  0.05348792    -0.02700
C804        C  0.64008701  0.13404879  0.06596352     0.07000
C805        C  0.64990552  0.15871171  0.05606069    -0.02800
C806        C  0.66812407  0.16826117  0.03384801    -0.02800
C807        C  0.67770208  0.15371783  0.02160305     0.07100
C808        C  0.66806971  0.12907921  0.03141998    -0.03000
Br809      Br  0.68130134  0.10921408  0.01553644    -0.01500
Br810      Br  0.63499570  0.08522025  0.06565015    -0.01600
Br811      Br  0.67893301  0.20151806  0.01974548    -0.01600
Br812      Br  0.63941520  0.18066210  0.07333374    -0.01600
C813        C  0.53584044  0.01093927  0.15904855    -0.02700
C814        C  0.54506219  0.02644791  0.13390743     0.07000
C815        C  0.54287231  0.01591578  0.10552496    -0.02800
C816        C  0.53072736  0.98999694  0.10220267    -0.02800
C817        C  0.51959985  0.97451885  0.12697753     0.07100
C818        C  0.52241414  0.98502814  0.15548931    -0.03000
Br819      Br  0.50701443  0.96390777  0.18938864    -0.01500
Br820      Br  0.54222249  0.02523604  0.19839115    -0.01600
Br821      Br  0.52867973  0.97558187  0.06357064    -0.01600
Br822      Br  0.55502236  0.03698819  0.07104147    -0.01600
C823        C  0.50244859  0.83317246  0.22276084    -0.02700
C824        C  0.52622946  0.84845176  0.23512329     0.07000
C825        C  0.54059736  0.87312924  0.22531437    -0.02800
C826        C  0.53084635  0.88264349  0.20387576    -0.02800
C827        C  0.50724149  0.86705366  0.19120712     0.07100
C828        C  0.49369521  0.84195209  0.20001460    -0.03000
Br829      Br  0.46390292  0.81798308  0.17928108    -0.01500
Br830      Br  0.48071732  0.79976465  0.23698338    -0.01600
Br831      Br  0.54965024  0.91686070  0.19230037    -0.01600
Br832      Br  0.57406809  0.89319870  0.23965166    -0.01600
C833        C  0.78210045  0.99770472  0.36029504    -0.02700
C834        C  0.79726153  0.98833174  0.34936037     0.07000
C835        C  0.82138393  0.99766914  0.36100864    -0.02800
C836        C  0.82901668  0.01339676  0.38561027    -0.02800
C837        C  0.81452734  0.02364562  0.39618010     0.07100
C838        C  0.79092591  0.01570220  0.38341589    -0.03000
Br839      Br  0.77079834  0.02930433  0.39746295    -0.01500
Br840      Br  0.74946909  0.98598347  0.34389606    -0.01600
Br841      Br  0.85854232  0.01835220  0.40626090    -0.01600
Br842      Br  0.84543416  0.99062112  0.34217244    -0.01600
C843        C  0.64597102  0.86903730  0.26918806    -0.02700
C844        C  0.63532687  0.86170255  0.29773608     0.07000
C845        C  0.65093288  0.87041247  0.32288933    -0.02800
C846        C  0.67700213  0.88393735  0.31945844    -0.02800
C847        C  0.68760903  0.88996500  0.29084475     0.07100
C848        C  0.67198502  0.88335223  0.26577436    -0.03000
Br849      Br  0.68639219  0.89363975  0.22665276    -0.01500
Br850      Br  0.62519285  0.85898587  0.23461177    -0.01600
Br851      Br  0.69833209  0.89325707  0.35377870    -0.01600
Br852      Br  0.63646873  0.86451048  0.36203524    -0.01600
C853        C  0.99991015  0.44702622  0.37586702    -0.02700
C854        C  0.01354182  0.47315333  0.37989346     0.07000
C855        C  0.00070026  0.48525620  0.39110528    -0.02800
C856        C  0.97491760  0.47200513  0.39538953    -0.02800
C857        C  0.96126285  0.44654521  0.38876549     0.07100
C858        C  0.97389854  0.43384688  0.38043923    -0.03000
Br859      Br  0.95552581  0.39848362  0.37399608    -0.01500
Br860      Br  0.01584400  0.42858039  0.36310408    -0.01600
Br861      Br  0.95833988  0.48914203  0.41142568    -0.01600
Br862      Br  0.01719241  0.52016875  0.40175833    -0.01600
C863        C  0.78479037  0.28712076  0.40153431    -0.02700
C864        C  0.77209786  0.28169953  0.42877177     0.07000
C865        C  0.77150848  0.30101393  0.44467705    -0.02800
C866        C  0.78659996  0.32584123  0.43523521    -0.02800
C867        C  0.80373918  0.33123849  0.41167232     0.07100
C868        C  0.80167505  0.31156625  0.39395947    -0.03000
Br869      Br  0.82191787  0.31743610  0.35912571    -0.01500
Br870      Br  0.77782435  0.26098953  0.37365133    -0.01600
Br871      Br  0.78337164  0.35186157  0.45412590    -0.01600
Br872      Br  0.75063660  0.29365770  0.47928667    -0.01600
C873        C  0.12506780  0.44541950  0.46219682    -0.02700
C874        C  0.12794228  0.45468906  0.49138146     0.07000
C875        C  0.11955570  0.47128754  0.49868995    -0.02800
C876        C  0.11156596  0.48128240  0.47620868    -0.02800
C877        C  0.11112534  0.47406542  0.44629390     0.07100
C878        C  0.11640450  0.45489364  0.43960053    -0.03000
Br879      Br  0.11506369  0.44380715  0.39910644    -0.01500
Br880      Br  0.13487682  0.42117380  0.45305727    -0.01600
Br881      Br  0.10287027  0.50614035  0.48646462    -0.01600
Br882      Br  0.11694929  0.48030563  0.03620193    -0.01600
C883        C  0.09839269  0.32175198  0.05494113    -0.02700
C884        C  0.11119686  0.30976749  0.04427161     0.07000
C885        C  0.13700072  0.32383981  0.03914828    -0.02800
C886        C  0.15007641  0.34906056  0.04630987    -0.02800
C887        C  0.13717044  0.36188267  0.05394269     0.07100
C888        C  0.11115563  0.34774238  0.05926703    -0.03000
Br889      Br  0.09255932  0.36296388  0.07393351    -0.01500
Br890      Br  0.06351172  0.30252331  0.06481797    -0.01600
Br891      Br  0.18597616  0.36435581  0.04922560    -0.01600
Br892      Br  0.15487997  0.30926065  0.02019172    -0.01600
C893        C  0.98352201  0.16010204  0.97889150    -0.02700
C894        C  0.99222843  0.15672868  0.00645823     0.07000
C895        C  0.97663928  0.13528663  0.52421754    -0.02800
C896        C  0.95176285  0.12022200  0.51552735    -0.02800
C897        C  0.94397444  0.12363394  0.48749936     0.07100
C898        C  0.95867912  0.14452261  0.97053199    -0.03000
Br899      Br  0.94753478  0.14929507  0.93231491    -0.01500
Br900      Br  0.00521817  0.18674392  0.95271102    -0.01600
Br901      Br  0.92773550  0.09704874  0.54326622    -0.01600
Br902      Br  0.98652097  0.13232724  0.56397299    -0.01600
C903        C  0.69872288  0.18206999  0.18427145    -0.02700
C904        C  0.70817290  0.20799629  0.18481014     0.07000
C905        C  0.69196172  0.21721089  0.17845848    -0.02800
C906        C  0.66688031  0.20077009  0.17066139    -0.02800
C907        C  0.65787507  0.17500905  0.16876375     0.07100
C908        C  0.67406772  0.16582948  0.17570420    -0.03000
Br909      Br  0.66358357  0.13096584  0.17143909    -0.01500
Br910      Br  0.71918820  0.16800551  0.19604326    -0.01600
Br911      Br  0.64475605  0.21359136  0.16335752    -0.01600
Br912      Br  0.70425462  0.25235917  0.17895230    -0.01600
C913        C  0.86544271  0.32380883  0.28509666    -0.02700
C914        C  0.85050875  0.32577557  0.26278326     0.07000
C915        C  0.84980400  0.34790659  0.26076487    -0.02800
C916        C  0.85888988  0.36506253  0.28410026    -0.02800
C917        C  0.86785637  0.35986547  0.31034290     0.07100
C918        C  0.87349335  0.34045217  0.30952935    -0.03000
Br919      Br  0.89131807  0.33594235  0.34167017    -0.01500
Br920      Br  0.87619878  0.29976594  0.28144824    -0.01600
Br921      Br  0.86000755  0.39616570  0.27904179    -0.01600
Br922      Br  0.83797403  0.35563211  0.22503930    -0.01600
C923        C  0.80837564  0.22847032  0.08228600    -0.02700
C924        C  0.80046174  0.24140617  0.10090826     0.07000
C925        C  0.78752175  0.25248420  0.08887002    -0.02800
C926        C  0.78366146  0.25194442  0.05814562    -0.02800
C927        C  0.78902533  0.23678189  0.03935720     0.07100
C928        C  0.80235736  0.22568592  0.05164097    -0.03000
Br929      Br  0.81271102  0.20651682  0.02771821    -0.01500
Br930      Br  0.82688945  0.21412752  0.09928751    -0.01600
Br931      Br  0.77284154  0.27396844  0.04259856    -0.01600
Br932      Br  0.77233093  0.26600471  0.11497438    -0.01600
C933        C  0.78734812  0.22440483  0.30915479    -0.02700
C934        C  0.76668095  0.21584518  0.29029880     0.07000
C935        C  0.74311536  0.19784002  0.30056724    -0.02800
C936        C  0.74008377  0.18921928  0.33018438    -0.02800
C937        C  0.76090951  0.19838976  0.34950278     0.07100
C938        C  0.78478122  0.21487939  0.33796483    -0.03000
Br939      Br  0.81446301  0.22467643  0.36124462    -0.01500
Br940      Br  0.81919192  0.25043527  0.29604596    -0.01600
Br941      Br  0.70704066  0.16610602  0.34398154    -0.01600
Br942      Br  0.71469831  0.18701561  0.27486303    -0.01600
C943        C  0.83854033  0.04075371  0.22955861    -0.02700
C944        C  0.86479835  0.05203543  0.23018659     0.07000
C945        C  0.87561100  0.03718317  0.23645427    -0.02800
C946        C  0.86036118  0.01172476  0.24321301    -0.02800
C947        C  0.83423087  0.00107479  0.24499470     0.07100
C948        C  0.82350057  0.01592998  0.23803273    -0.03000
Br949      Br  0.78813612  0.00362299  0.24247783    -0.01500
Br950      Br  0.82235514  0.05879010  0.21591864    -0.01600
Br951      Br  0.87532207  0.99130352  0.24905876    -0.01600
Br952      Br  0.91125022  0.05169198  0.23732697    -0.01600
C953        C  0.85802063  0.19281832  0.23999789    -0.02700
C954        C  0.87789835  0.19711711  0.22113085     0.07000
C955        C  0.88566767  0.21522466  0.19880585    -0.02800
C956        C  0.87252914  0.22801902  0.19408827    -0.02800
C957        C  0.85151117  0.22271378  0.21193307     0.07100
C958        C  0.84492968  0.20554416  0.23559507    -0.03000
Br959      Br  0.81790678  0.19874015  0.26252492    -0.01500
Br960      Br  0.84848114  0.16902449  0.27197812    -0.01600
Br961      Br  0.88245968  0.25099505  0.16131145    -0.01600
Br962      Br  0.91305912  0.22095036  0.17310959    -0.01600
C963        C  0.90012475  0.12046302  0.32820569    -0.02700
C964        C  0.90082860  0.14239229  0.31955497     0.07000
C965        C  0.89964101  0.15818380  0.34109013    -0.02800
C966        C  0.89605590  0.15118979  0.37134788    -0.02800
C967        C  0.89289628  0.12785407  0.37997916     0.07100
C968        C  0.89536842  0.11269225  0.35791109    -0.03000
Br969      Br  0.89094674  0.08029028  0.36637568    -0.01500
Br970      Br  0.90674315  0.10145002  0.29899751    -0.01600
Br971      Br  0.89681303  0.17447533  0.40044741    -0.01600
Br972      Br  0.90308371  0.18938546  0.32885924    -0.01600
C973        C  0.85457614  0.12391310  0.08377643    -0.02700
C974        C  0.84921179  0.10132053  0.07007405     0.07000
C975        C  0.84882545  0.08234948  0.08764841    -0.02800
C976        C  0.85580543  0.08675284  0.11779911    -0.02800
C977        C  0.86379225  0.11019350  0.13044617     0.07100
C978        C  0.86182662  0.12833187  0.11393849    -0.03000
Br979      Br  0.86965460  0.15936656  0.13241691    -0.01500
Br980      Br  0.85198542  0.14879039  0.06112437    -0.01600
Br981      Br  0.85464510  0.06073161  0.14215297    -0.01600
Br982      Br  0.84108990  0.05099490  0.07031500    -0.01600
C983        C  0.99912920  0.20818870  0.15809905    -0.02700
C984        C  0.97380273  0.19506455  0.15031888     0.07000
C985        C  0.96655447  0.19390972  0.12046197    -0.02800
C986        C  0.98471935  0.20445754  0.09814533    -0.02800
C987        C  0.00997304  0.21526523  0.10572488     0.07100
C988        C  0.01724543  0.21825342  0.13570735    -0.03000
Br989      Br  0.05204042  0.23396503  0.14568796    -0.01500
Br990      Br  0.00911166  0.20945144  0.19897880    -0.01600
Br991      Br  0.97512290  0.20171860  0.05688916    -0.01600
Br992      Br  0.93196273  0.17575757  0.10983033    -0.01600
C993        C  0.83929616  0.97016901  0.02300592    -0.02700
C994        C  0.81498426  0.95165064  0.01463885     0.07000
C995        C  0.80051181  0.95849465  0.99698273    -0.02800
C996        C  0.80885494  0.98348647  0.99099478    -0.02800
C997        C  0.83288266  0.00200322  0.99967240     0.07100
C998        C  0.84839998  0.99512870  0.01469281    -0.03000
Br999      Br  0.88162246  0.02021070  0.02523653    -0.01500
Br1000     Br  0.86000679  0.96219073  0.04714807    -0.01600
Br1001     Br  0.78978873  0.99240605  0.46860673    -0.01600
Br1002     Br  0.76954484  0.93385167  0.97895830    -0.01600
C1003       C  0.78537509  0.88902851  0.42706122    -0.02700
C1004       C  0.76486337  0.86652417  0.43617233     0.07000
C1005       C  0.74738308  0.85121473  0.41481344    -0.02800
C1006       C  0.75011751  0.85854175  0.38460479    -0.02800
C1007       C  0.77001273  0.88194282  0.37560983     0.07100
C1008       C  0.78744759  0.89725646  0.39752409    -0.03000
Br1009     Br  0.81341336  0.93069704  0.38897288    -0.01500
Br1010     Br  0.81154582  0.90835514  0.45509109    -0.01600
Br1011     Br  0.72657393  0.83574085  0.35606936    -0.01600
Br1012     Br  0.71930019  0.82044414  0.42719633    -0.01600
C1013       C  0.76335815  0.91952822  0.16598261    -0.02700
C1014       C  0.75249508  0.89909186  0.18581001     0.07000
C1015       C  0.74333355  0.87497388  0.17416595    -0.02800
C1016       C  0.74819220  0.87158408  0.14443400    -0.02800
C1017       C  0.76044949  0.89211588  0.12541387     0.07100
C1018       C  0.76720299  0.91589751  0.13588835    -0.03000
Br1019     Br  0.78230446  0.94354228  0.10873598    -0.01500
Br1020     Br  0.77387864  0.95283637  0.17909146    -0.01600
Br1021     Br  0.73989764  0.83895105  0.13061013    -0.01600
Br1022     Br  0.72251753  0.84633042  0.19814941    -0.01600
C1023       C  0.50917198  0.80442554  0.09846781    -0.02700
C1024       C  0.49798496  0.78767763  0.07489562     0.07000
C1025       C  0.47656924  0.78608756  0.06156672    -0.02800
C1026       C  0.46864720  0.80309684  0.07000762    -0.02800
C1027       C  0.48364453  0.82316504  0.08899540     0.07100
C1028       C  0.50411483  0.82365468  0.10307047    -0.03000
Br1029     Br  0.52640921  0.85085742  0.12789955    -0.01500
Br1030     Br  0.52847262  0.79867342  0.12738851    -0.01600
Br1031     Br  0.43756018  0.79898508  0.05581271    -0.01600
Br1032     Br  0.45785349  0.76081842  0.03254172    -0.01600
C1033       C  0.67507150  0.81299606  0.06375198    -0.02700
C1034       C  0.68634288  0.80586620  0.04139560     0.07000
C1035       C  0.67137601  0.78475785  0.02381754    -0.02800
C1036       C  0.64523649  0.77185485  0.02750709    -0.02800
C1037       C  0.63413146  0.77979679  0.04917671     0.07100
C1038       C  0.64934450  0.79964320  0.06815032    -0.03000
Br1039     Br  0.63513647  0.80841570  0.10116819    -0.01500
Br1040     Br  0.69439505  0.84167161  0.08834033    -0.01600
Br1041     Br  0.62848608  0.74314354  0.50224972    -0.01600
Br1042     Br  0.68925731  0.77813998  0.48980195    -0.01600
C1043       C  0.56173357  0.75242556  0.20322255    -0.02700
C1044       C  0.56215362  0.77425850  0.21220401     0.07000
C1045       C  0.56892260  0.79352362  0.19167381    -0.02800
C1046       C  0.57475582  0.79083594  0.16227618    -0.02800
C1047       C  0.56967079  0.76725378  0.15166305     0.07100
C1048       C  0.56519523  0.74865648  0.17298095    -0.03000
Br1049     Br  0.56499417  0.71848442  0.16227120    -0.01500
Br1050     Br  0.55556900  0.72744326  0.23244690    -0.01600
Br1051     Br  0.59166823  0.82058020  0.13827941    -0.01600
Br1052     Br  0.56845319  0.82318855  0.20259039    -0.01600
C1053       C  0.58396813  0.79508592  0.44602078    -0.02700
C1054       C  0.56397061  0.79347461  0.46287980     0.07000
C1055       C  0.54823171  0.80119740  0.45033387    -0.02800
C1056       C  0.55013041  0.80706613  0.41995057    -0.02800
C1057       C  0.56833976  0.80592379  0.40201056     0.07100
C1058       C  0.58600986  0.80110849  0.41554247    -0.03000
Br1059     Br  0.61306987  0.80283444  0.39239493    -0.01500
Br1060     Br  0.60810090  0.78831313  0.46425159    -0.01600
Br1061     Br  0.52627816  0.81474086  0.40329400    -0.01600
Br1062     Br  0.52454399  0.80448892  0.47533786    -0.01600
C1063       C  0.51756264  0.64134265  0.46031549    -0.02700
C1064       C  0.51972895  0.64964928  0.43077654     0.07000
C1065       C  0.53309777  0.67518144  0.42481022    -0.02800
C1066       C  0.54179114  0.69233660  0.44847355    -0.02800
C1067       C  0.53751262  0.68406986  0.47826075     0.07100
C1068       C  0.52685220  0.65847306  0.48402789    -0.03000
Br1069     Br  0.52781665  0.65044247  0.02630231    -0.01500
Br1070     Br  0.50002991  0.60629961  0.46824077    -0.01600
Br1071     Br  0.55878448  0.72724675  0.44003710    -0.01600
Br1072     Br  0.53745423  0.68664708  0.38425846    -0.01600
C1073       C  0.47969666  0.67242803  0.30284848    -0.02700
C1074       C  0.47571779  0.66550969  0.33306923     0.07000
C1075       C  0.48029303  0.68368113  0.35493620    -0.02800
C1076       C  0.49200979  0.70889255  0.34707584    -0.02800
C1077       C  0.49763479  0.71594900  0.31711984     0.07100
C1078       C  0.48958803  0.69750710  0.29486930    -0.03000
Br1079     Br  0.49140758  0.70658681  0.25363524    -0.01500
Br1080     Br  0.47178351  0.64757872  0.27255493    -0.01600
Br1081     Br  0.50111020  0.73395691  0.37736351    -0.01600
Br1082     Br  0.47197673  0.67435643  0.39604915    -0.01600
C1083       C  0.55221437  0.54783864  0.38771388    -0.02700
C1084       C  0.54152030  0.52236780  0.37953263     0.07000
C1085       C  0.51821631  0.51115113  0.36427247    -0.02800
C1086       C  0.50726847  0.52533031  0.35595890    -0.02800
C1087       C  0.51687591  0.54974782  0.36625983     0.07100
C1088       C  0.53958647  0.56111396  0.38172891    -0.03000
Br1089     Br  0.55279419  0.59461693  0.39598847    -0.01500
Br1090     Br  0.58315669  0.56493921  0.40936744    -0.01600
Br1091     Br  0.47927645  0.51150146  0.32882777    -0.01600
Br1092     Br  0.49877039  0.47595474  0.35596390    -0.01600
C1093       C  0.65421146  0.53517217  0.26768757    -0.02700
C1094       C  0.67949220  0.55049785  0.27436994     0.07000
C1095       C  0.68713082  0.55588692  0.30422989    -0.02800
C1096       C  0.66977008  0.54419257  0.32735042    -0.02800
C1097       C  0.64490857  0.52673733  0.32047050     0.07100
C1098       C  0.63714299  0.52259278  0.29057709    -0.03000
Br1099     Br  0.60392381  0.49770086  0.28048057    -0.01500
Br1100     Br  0.64352331  0.52962994  0.22670713    -0.01600
Br1101     Br  0.68062640  0.54970757  0.36822241    -0.01600
Br1102     Br  0.72175707  0.57760860  0.31309520    -0.01600
C1103       C  0.82038282  0.83204728  0.15507386    -0.02700
C1104       C  0.81669980  0.80788069  0.15467631     0.07000
C1105       C  0.79857636  0.79002548  0.13569109    -0.02800
C1106       C  0.78641790  0.79714810  0.11454668    -0.02800
C1107       C  0.79190244  0.82213226  0.11321401     0.07100
C1108       C  0.80645280  0.83840489  0.13643425    -0.03000
Br1109     Br  0.80681193  0.86920918  0.14465864    -0.01500
Br1110     Br  0.84546139  0.85735316  0.18014333    -0.01600
Br1111     Br  0.76183871  0.77227485  0.08883046    -0.01600
Br1112     Br  0.79186674  0.75633725  0.13735873    -0.01600
C1113       C  0.82157083  0.68647765  0.19788958    -0.02700
C1114       C  0.81018021  0.69982520  0.20889292     0.07000
C1115       C  0.78456278  0.68670254  0.21622586    -0.02800
C1116       C  0.77118701  0.66055683  0.21488904    -0.02800
C1117       C  0.78325414  0.64725743  0.20627931     0.07100
C1118       C  0.80833115  0.66049502  0.19688161    -0.03000
Br1119     Br  0.82495019  0.64337717  0.18138954    -0.01500
Br1120     Br  0.85538699  0.70342944  0.18293714    -0.01600
Br1121     Br  0.73664189  0.64318459  0.22672069    -0.01600
Br1122     Br  0.76759018  0.70397952  0.22963335    -0.01600
C1123       C  0.81739675  0.83970743  0.25019494    -0.02700
C1124       C  0.84251355  0.84742489  0.25680764     0.07000
C1125       C  0.85795538  0.87192640  0.26701927    -0.02800
C1126       C  0.84810901  0.88806980  0.27158853    -0.02800
C1127       C  0.82291826  0.88015165  0.26452195     0.07100
C1128       C  0.80851140  0.85646094  0.25160997    -0.03000
Br1129     Br  0.77712690  0.84722649  0.23250335    -0.01500
Br1130     Br  0.79416350  0.80606251  0.23845795    -0.01600
Br1131     Br  0.86943452  0.92078993  0.28731881    -0.01600
Br1132     Br  0.89203056  0.88262105  0.27697799    -0.01600
C1133       C  0.87117232  0.84938396  0.46504973    -0.02700
C1134       C  0.87878914  0.83710057  0.48515661     0.07000
C1135       C  0.87460738  0.84148409  0.01475024    -0.02800
C1136       C  0.85742800  0.84857308  0.02433921    -0.02800
C1137       C  0.84375436  0.85372104  0.00329191     0.07100
C1138       C  0.85469117  0.85756631  0.47456090    -0.03000
Br1139     Br  0.84275257  0.87266378  0.44680421    -0.01500
Br1140     Br  0.88210864  0.85378194  0.42424826    -0.01600
Br1141     Br  0.85067490  0.84836195  0.06633772    -0.01600
Br1142     Br  0.89250650  0.83327583  0.04343687    -0.01600
C1143       C  0.87729856  0.76064903  0.11392231    -0.02700
C1144       C  0.89675427  0.77967810  0.13052106     0.07000
C1145       C  0.91981535  0.79506774  0.11651100    -0.02800
C1146       C  0.92377309  0.79054555  0.08688218    -0.02800
C1147       C  0.90375362  0.77299323  0.06965648     0.07100
C1148       C  0.88078869  0.75734208  0.08363160    -0.03000
Br1149     Br  0.85436544  0.73048400  0.06161600    -0.01500
Br1150     Br  0.84467792  0.74123226  0.13123180    -0.01600
Br1151     Br  0.95688351  0.80835150  0.07053969    -0.01600
Br1152     Br  0.94555155  0.82395650  0.13632990    -0.01600
C1153       C  0.85337159  0.77508231  0.36883910    -0.02700
C1154       C  0.86938539  0.76731087  0.38022657     0.07000
C1155       C  0.87647144  0.75326901  0.36232262    -0.02800
C1156       C  0.87091898  0.75052282  0.33171256    -0.02800
C1157       C  0.85751532  0.76123307  0.31915668     0.07100
C1158       C  0.84691440  0.77161747  0.33849802    -0.03000
Br1159     Br  0.82448723  0.78236978  0.32423157    -0.01500
Br1160     Br  0.84099470  0.79115406  0.39500071    -0.01600
Br1161     Br  0.88149094  0.73172377  0.30742641    -0.01600
Br1162     Br  0.89413685  0.73819478  0.37990399    -0.01600
C1163       C  0.69684584  0.51925012  0.45943548    -0.02700
C1164       C  0.71097932  0.50897927  0.44821984     0.07000
C1165       C  0.69945045  0.48730985  0.43093102    -0.02800
C1166       C  0.67472897  0.47795165  0.42121283    -0.02800
C1167       C  0.66115400  0.48988174  0.42992458     0.07100
C1168       C  0.67190556  0.50937706  0.45113473    -0.03000
Br1169     Br  0.65298175  0.52294700  0.46977061    -0.01500
Br1170     Br  0.71186296  0.54733254  0.48622262    -0.01600
Br1171     Br  0.66095095  0.44985331  0.39453858    -0.01600
Br1172     Br  0.71806804  0.47133618  0.41933271    -0.01600
C1173       C  0.84256113  0.65997271  0.44754126    -0.02700
C1174       C  0.85162856  0.64514726  0.45970696     0.07000
C1175       C  0.87489061  0.65664212  0.47416875    -0.02800
C1176       C  0.88879191  0.68275291  0.47692399    -0.02800
C1177       C  0.87942134  0.69768129  0.46539961     0.07100
C1178       C  0.85630536  0.68589749  0.45012115    -0.03000
Br1179     Br  0.84286560  0.70468800  0.43145438    -0.01500
Br1180     Br  0.81109524  0.64487350  0.42663817    -0.01600
Br1181     Br  0.91986769  0.69750275  0.49822167    -0.01600
Br1182     Br  0.88673687  0.63645574  0.49249100    -0.01600
C1183       C  0.80885861  0.47002490  0.44372804    -0.02700
C1184       C  0.81371523  0.49053944  0.42568238     0.07000
C1185       C  0.82665478  0.49429074  0.39853771    -0.02800
C1186       C  0.83550477  0.47834355  0.39021241    -0.02800
C1187       C  0.83084999  0.45811129  0.40835941     0.07100
C1188       C  0.81705287  0.45358196  0.43468641    -0.03000
Br1189     Br  0.81116014  0.42586826  0.45923242    -0.01500
Br1190     Br  0.79427161  0.46616241  0.48273691    -0.01600
Br1191     Br  0.85563942  0.48541916  0.35482137    -0.01600
Br1192     Br  0.83357036  0.52195971  0.37304950    -0.01600
C1193       C  0.80275357  0.58905091  0.34184935    -0.02700
C1194       C  0.79692515  0.56847243  0.35988712     0.07000
C1195       C  0.78310205  0.54443198  0.34793713    -0.02800
C1196       C  0.77546650  0.54098221  0.31801186    -0.02800
C1197       C  0.78047213  0.56160671  0.30008768     0.07100
C1198       C  0.79390429  0.58568110  0.31237784    -0.03000
Br1199     Br  0.79804472  0.61402345  0.29033932    -0.01500
Br1200     Br  0.82323715  0.62187887  0.35754340    -0.01600
Br1201     Br  0.75822626  0.50771375  0.30196565    -0.01600
Br1202     Br  0.77299323  0.51598819  0.37317874    -0.01600
C1203       C  0.74698402  0.54669622  0.06473053    -0.02700
C1204       C  0.76381976  0.56713703  0.04759271     0.07000
C1205       C  0.77572996  0.59104121  0.06052045    -0.02800
C1206       C  0.77280635  0.59385610  0.09120177    -0.02800
C1207       C  0.75804051  0.57290832  0.10877055     0.07100
C1208       C  0.74477675  0.54945209  0.09531852    -0.03000
Br1209     Br  0.72484237  0.52058016  0.11910235    -0.01500
Br1210     Br  0.72584916  0.51497556  0.04608668    -0.01600
Br1211     Br  0.78874293  0.62624764  0.10922748    -0.01600
Br1212     Br  0.79620461  0.61991237  0.03678598    -0.01600
C1213       C  0.17553169  0.53479653  0.06221459    -0.02700
C1214       C  0.17834972  0.51913696  0.08252772     0.07000
C1215       C  0.17347805  0.52023439  0.11287103    -0.02800
C1216       C  0.16195601  0.53365179  0.12223692    -0.02800
C1217       C  0.15680772  0.54736350  0.10141993     0.07100
C1218       C  0.16508397  0.54923904  0.07183115    -0.03000
Br1219     Br  0.16049691  0.57024918  0.04420811    -0.01500
Br1220     Br  0.18412444  0.53505258  0.02087923    -0.01600
Br1221     Br  0.15247016  0.53248402  0.16337751    -0.01600
Br1222     Br  0.18336941  0.50384516  0.14141301    -0.01600
C1223       C  0.06696250  0.54253973  0.51126552    -0.02700
C1224       C  0.08475133  0.56495361  0.02339318     0.07000
C1225       C  0.10343994  0.58440862  0.00631154    -0.02800
C1226       C  0.10170250  0.58076300  0.47473958    -0.02800
C1227       C  0.08593542  0.55729945  0.46255648     0.07100
C1228       C  0.06782251  0.53842317  0.48051981    -0.03000
Br1229     Br  0.04567455  0.50640315  0.46358281    -0.01500
Br1230     Br  0.04244820  0.51571107  0.03167975    -0.01600
Br1231     Br  0.12525845  0.60702691  0.44936296    -0.01600
Br1232     Br  0.12704069  0.61528307  0.02396247    -0.01600
C1233       C  0.11167783  0.55109745  0.26502742    -0.02700
C1234       C  0.09250724  0.52751532  0.27341690     0.07000
C1235       C  0.07774467  0.51054143  0.25126410    -0.02800
C1236       C  0.08200795  0.51732166  0.22085434    -0.02800
C1237       C  0.09985091  0.54182633  0.21253284     0.07100
C1238       C  0.11467338  0.55862462  0.23520388    -0.03000
Br1239     Br  0.13843016  0.59287192  0.22719034    -0.01500
Br1240     Br  0.13481020  0.57320839  0.29456709    -0.01600
Br1241     Br  0.06449634  0.49228621  0.19101343    -0.01600
Br1242     Br  0.05093121  0.47851253  0.26272172    -0.01600
C1243       C  0.80408152  0.36947318  0.16321072    -0.02700
C1244       C  0.82584116  0.38158689  0.14583518     0.07000
C1245       C  0.83507654  0.36748788  0.13176568    -0.02800
C1246       C  0.82391724  0.34198331  0.13697962    -0.02800
C1247       C  0.80524409  0.33071873  0.15894623     0.07100
C1248       C  0.79404077  0.34415279  0.17040683    -0.03000
Br1249     Br  0.76646218  0.32910468  0.19780700    -0.01500
Br1250     Br  0.78925648  0.38800107  0.17890942    -0.01600
Br1251     Br  0.83446763  0.32257501  0.11375181    -0.01600
Br1252     Br  0.86390346  0.38311639  0.10614403    -0.01600
C1253       C  0.84727798  0.55103669  0.05688753    -0.02700
C1254       C  0.85093354  0.54713316  0.02686706     0.07000
C1255       C  0.86408479  0.53474319  0.01951284    -0.02800
C1256       C  0.87239085  0.52512276  0.04216160    -0.02800
C1257       C  0.86715569  0.52748090  0.07209069     0.07100
C1258       C  0.85533809  0.54115694  0.07953084    -0.03000
Br1259     Br  0.84764053  0.54388430  0.12053108    -0.01500
Br1260     Br  0.82899134  0.56777192  0.06668882    -0.01600
Br1261     Br  0.88910075  0.50684186  0.03229121    -0.01600
Br1262     Br  0.87376131  0.53021303  0.47633574    -0.01600
C1263       C  0.86040295  0.45125750  0.28043054    -0.02700
C1264       C  0.88105901  0.45850838  0.29956786     0.07000
C1265       C  0.90526729  0.47437501  0.28816664    -0.02800
C1266       C  0.90858885  0.48068795  0.25764194    -0.02800
C1267       C  0.88812209  0.47041950  0.23823698     0.07100
C1268       C  0.86403532  0.45606731  0.24979100    -0.03000
Br1269     Br  0.83588636  0.44191298  0.22320553    -0.01500
Br1270     Br  0.82676935  0.43533459  0.29576799    -0.01600
Br1271     Br  0.94104817  0.50348327  0.24218070    -0.01600
Br1272     Br  0.93421374  0.48725670  0.31335818    -0.01600
C1273       C  0.90598993  0.44804220  0.03323262    -0.02700
C1274       C  0.88240569  0.43617427  0.04705934     0.07000
C1275       C  0.86198731  0.41708173  0.03179691    -0.02800
C1276       C  0.86913907  0.41160766  0.50533949    -0.02800
C1277       C  0.89122626  0.42558850  0.48887159     0.07100
C1278       C  0.90848697  0.44265548  0.00327359    -0.03000
Br1279     Br  0.94403786  0.46051567  0.48369714    -0.01500
Br1280     Br  0.93470848  0.47239467  0.05470488    -0.01600
Br1281     Br  0.84040701  0.38461837  0.48720828    -0.01600
Br1282     Br  0.83006642  0.39841773  0.05133682    -0.01600
C1283       C  0.97958307  0.51491843  0.15395030    -0.02700
C1284       C  0.96473826  0.52239878  0.13821649     0.07000
C1285       C  0.97646456  0.54423146  0.12099857    -0.02800
C1286       C  0.00270565  0.55775589  0.11853058    -0.02800
C1287       C  0.01740259  0.54951373  0.13323609     0.07100
C1288       C  0.00564937  0.52879360  0.15213285    -0.03000
Br1289     Br  0.02532821  0.52033753  0.17746242    -0.01500
Br1290     Br  0.96447442  0.48550341  0.17833353    -0.01600
Br1291     Br  0.01827812  0.58705507  0.09415805    -0.01600
Br1292     Br  0.95660967  0.55448570  0.09867092    -0.01600
C1293       C  0.81511695  0.49942366  0.20166152    -0.02700
C1294       C  0.80967590  0.48540345  0.17511300     0.07000
C1295       C  0.78743226  0.47928729  0.15971717    -0.02800
C1296       C  0.77250587  0.48934733  0.16913893    -0.02800
C1297       C  0.78033058  0.50647377  0.19278407     0.07100
C1298       C  0.80095401  0.51047159  0.20990378    -0.03000
Br1299     Br  0.80999698  0.53143707  0.24469508    -0.01500
Br1300     Br  0.84180003  0.50339364  0.22727199    -0.01600
Br1301     Br  0.74163473  0.47998719  0.14941679    -0.01600
Br1302     Br  0.77800600  0.45887549  0.12438514    -0.01600
C1303       C  0.02132363  0.80563976  0.38136389    -0.02700
C1304       C  0.01655769  0.80865459  0.35160996     0.07000
C1305       C  0.99212852  0.80114030  0.34273603    -0.02800
C1306       C  0.97356374  0.79551498  0.36415545     0.08000
C1307       C  0.97848822  0.79401002  0.39455981     0.07100
C1308       C  0.00208411  0.79735977  0.40271014    -0.03000
Br1309     Br  0.00960223  0.79423704  0.44361545    -0.01500
Br1310     Br  0.05465489  0.81461603  0.39296027    -0.01600
Br1311     Br  0.94252673  0.79245403  0.35124568    -0.01600
Br1312     Br  0.98439194  0.79945263  0.30100899    -0.01600
C1313       C  0.98945953  0.85936677  0.26809978    -0.02700
C1314       C  0.00425796  0.85093044  0.25357388     0.07000
C1315       C  0.99391702  0.83406074  0.22963579    -0.02800
C1316       C  0.96858112  0.82355566  0.22283152    -0.02800
C1317       C  0.95384208  0.83231544  0.23688378     0.07100
C1318       C  0.96481824  0.85105436  0.25868330    -0.03000
Br1319     Br  0.94537697  0.86341821  0.27825502    -0.01500
Br1320     Br  0.00115352  0.87950974  0.30361304    -0.01600
Br1321     Br  0.95438401  0.79559477  0.19571784    -0.01600
Br1322     Br  0.01405651  0.82449883  0.20595868    -0.01600
C1323       C  0.12545935  0.78143120  0.31206979    -0.02700
C1324       C  0.14694053  0.78756792  0.29506532     0.07000
C1325       C  0.15623986  0.80782329  0.27553598    -0.02800
C1326       C  0.14564514  0.82316784  0.27482913    -0.02800
C1327       C  0.12379643  0.81680354  0.29115939     0.07100
C1328       C  0.11361418  0.79573113  0.30965258    -0.03000
Br1329     Br  0.08490322  0.78786344  0.33390837    -0.01500
Br1330     Br  0.11309848  0.75440159  0.33997584    -0.01600
Br1331     Br  0.16201072  0.85338636  0.25218318    -0.01600
Br1332     Br  0.18246992  0.81355763  0.24806391    -0.01600
C1333       C  0.14299095  0.65167515  0.34552925    -0.02700
C1334       C  0.16867142  0.66583323  0.33915759     0.07000
C1335       C  0.18393025  0.65531380  0.34448745    -0.02800
C1336       C  0.17339482  0.63051322  0.35453896    -0.02800
C1337       C  0.14764419  0.61649707  0.36117040     0.07100
C1338       C  0.13308848  0.62823752  0.35859648    -0.03000
Br1339     Br  0.09972477  0.61363161  0.37498438    -0.01500
Br1340     Br  0.12010205  0.66285067  0.33379109    -0.01600
Br1341     Br  0.19455863  0.61616743  0.35858705    -0.01600
Br1342     Br  0.21936975  0.67506020  0.33891804    -0.01600
C1343       C  0.15396630  0.65873407  0.19825573    -0.02700
C1344       C  0.12911897  0.64962918  0.18906905     0.07000
C1345       C  0.11538235  0.66013346  0.20112984    -0.02800
C1346       C  0.12656765  0.67962343  0.22216468    -0.02800
C1347       C  0.15074784  0.68718976  0.23278598     0.07100
C1348       C  0.16388485  0.67579507  0.22143429    -0.03000
Br1349     Br  0.19477991  0.68128070  0.23909728    -0.01500
Br1350     Br  0.17585585  0.64929234  0.17849655    -0.01600
Br1351     Br  0.10913068  0.69630710  0.23553661    -0.01600
Br1352     Br  0.08112372  0.64712251  0.19011265    -0.01600
C1353       C  0.15617797  0.67862054  0.07608399    -0.02700
C1354       C  0.16540577  0.66286290  0.08488315     0.07000
C1355       C  0.19134499  0.67187795  0.08340523    -0.02800
C1356       C  0.20794167  0.69685136  0.07563947    -0.02800
C1357       C  0.19867220  0.71275551  0.06803836     0.07100
C1358       C  0.17254401  0.70285741  0.06661926    -0.03000
Br1359     Br  0.15825585  0.72202372  0.05072215    -0.01500
Br1360     Br  0.12111317  0.66849499  0.07896715    -0.01600
Br1361     Br  0.24324641  0.70924507  0.07671344    -0.01600
Br1362     Br  0.20425286  0.64987323  0.09090046    -0.01600
C1363       C  0.35897179  0.83270380  0.11937531    -0.02700
C1364       C  0.37734671  0.83752696  0.09775163     0.07000
C1365       C  0.37036044  0.83000936  0.06809017    -0.02800
C1366       C  0.34510300  0.81876803  0.05983791    -0.02800
C1367       C  0.32686910  0.81536357  0.08123362     0.07100
C1368       C  0.33389459  0.82191279  0.11109333    -0.03000
Br1369     Br  0.30923782  0.81741855  0.14046295    -0.01500
Br1370     Br  0.36817260  0.84175766  0.16036963    -0.01600
Br1371     Br  0.33596726  0.81046482  0.01866203    -0.01600
Br1372     Br  0.39566885  0.83723597  0.03843919    -0.01600
C1373       C  0.24093158  0.82047426  0.17792883    -0.02700
C1374       C  0.24045076  0.80439766  0.15560273     0.07000
C1375       C  0.24099072  0.78284178  0.16357792    -0.02800
C1376       C  0.23910054  0.77579784  0.19361738    -0.02800
C1377       C  0.23726449  0.79084808  0.21637429     0.07100
C1378       C  0.24045824  0.81427221  0.20821147    -0.03000
Br1379     Br  0.24716721  0.83927562  0.23793413    -0.01500
Br1380     Br  0.24116761  0.85045329  0.16685119    -0.01600
Br1381     Br  0.23913118  0.74529655  0.20193347    -0.01600
Br1382     Br  0.24490892  0.76308120  0.13290231    -0.01600
C1383       C  0.19841687  0.78766993  0.44943466    -0.02700
C1384       C  0.20570111  0.77205939  0.46354066     0.07000
C1385       C  0.20471202  0.75198935  0.44782544    -0.02800
C1386       C  0.19825037  0.74856285  0.41763113    -0.02800
C1387       C  0.19270304  0.76516080  0.40289840     0.07100
C1388       C  0.19178783  0.78409879  0.41907489    -0.03000
Br1389     Br  0.18175537  0.80514914  0.39931398    -0.01500
Br1390     Br  0.19940161  0.81502201  0.47084806    -0.01600
Br1391     Br  0.19837159  0.72173499  0.39635183    -0.01600
Br1392     Br  0.21284334  0.72940228  0.46760142    -0.01600
C1393       C  0.01762622  0.86198226  0.47501292    -0.02700
C1394       C  0.99772637  0.85692671  0.99322332     0.07000
C1395       C  0.00244203  0.86891147  0.02100974    -0.02800
C1396       C  0.02725183  0.88395499  0.03108000    -0.02800
C1397       C  0.04757622  0.88677671  0.01344903     0.07100
C1398       C  0.04199474  0.87642530  0.48571071    -0.03000
Br1399     Br  0.06917956  0.88345827  0.45917665    -0.01500
Br1400     Br  0.01208647  0.85343069  0.43337866    -0.01600
Br1401     Br  0.03280494  0.89953368  0.06947065    -0.01600
Br1402     Br  0.97492798  0.86669375  0.04348751    -0.01600
C1403       C  0.18545315  0.84555387  0.04060074    -0.02700
C1404       C  0.21045212  0.85696906  0.05137274     0.07000
C1405       C  0.22322915  0.88311671  0.05579320    -0.02800
C1406       C  0.21085565  0.89691652  0.05167501    -0.02800
C1407       C  0.18608345  0.88527085  0.04134535     0.07100
C1408       C  0.17418818  0.85984103  0.03417368    -0.03000
Br1409     Br  0.14258338  0.84434356  0.01330261    -0.01500
Br1410     Br  0.16476972  0.81006927  0.03445129    -0.01600
Br1411     Br  0.22781164  0.93174109  0.06150080    -0.01600
Br1412     Br  0.25758215  0.90090143  0.06831510    -0.01600
C1413       C  0.14086484  0.89186163  0.42663547    -0.02700
C1414       C  0.13687450  0.90897823  0.44292680     0.07000
C1415       C  0.12694431  0.92224422  0.42861844    -0.02800
C1416       C  0.12007415  0.91768467  0.39855013    -0.02800
C1417       C  0.12273423  0.89954980  0.38254524     0.07100
C1418       C  0.13355991  0.88691580  0.39654300    -0.03000
Br1419     Br  0.13656714  0.86144055  0.37550105    -0.01500
Br1420     Br  0.15668394  0.87555015  0.44560300    -0.01600
Br1421     Br  0.10660327  0.93629559  0.37956189    -0.01600
Br1422     Br  0.12021084  0.94495061  0.45083638    -0.01600
C1423       C  0.08618243  0.88710044  0.14941837    -0.02700
C1424       C  0.10180306  0.88343374  0.12960138     0.07000
C1425       C  0.11542163  0.87229107  0.14035492    -0.02800
C1426       C  0.11407844  0.86594145  0.17069618    -0.02800
C1427       C  0.09905482  0.87038455  0.19043899     0.07100
C1428       C  0.08498298  0.88076470  0.17957638    -0.03000
Br1429     Br  0.06500415  0.88778232  0.20650193    -0.01500
Br1430     Br  0.06588354  0.90050046  0.13556472    -0.01600
Br1431     Br  0.13291758  0.85126740  0.18520077    -0.01600
Br1432     Br  0.13725970  0.86688352  0.11449244    -0.01600
C1433       C  0.52113530  0.16338544  0.13207147    -0.02700
C1434       C  0.54000145  0.16538612  0.15128669     0.07000
C1435       C  0.54720345  0.18181858  0.17568321    -0.02800
C1436       C  0.53371610  0.19398712  0.18265861    -0.02800
C1437       C  0.51241898  0.18892433  0.16582834     0.07100
C1438       C  0.50726274  0.17489324  0.13944498    -0.03000
Br1439     Br  0.48054947  0.17071942  0.11366384    -0.01500
Br1440     Br  0.51409259  0.14488448  0.09538285    -0.01600
Br1441     Br  0.54298704  0.21522226  0.21724521    -0.01600
Br1442     Br  0.57373298  0.18561166  0.20142436    -0.01600
C1443       C  0.17757650  0.97577385  0.14107608    -0.02700
C1444       C  0.18699676  0.98287580  0.11208321     0.07000
C1445       C  0.20706882  0.00686055  0.10694050    -0.02800
C1446       C  0.21542254  0.02454487  0.13003668    -0.02800
C1447       C  0.20402696  0.01804441  0.15822309     0.07100
C1448       C  0.18597706  0.99333787  0.16406863    -0.03000
Br1449     Br  0.17114217  0.98395076  0.20300935    -0.01500
Br1450     Br  0.15222987  0.94217252  0.14894639    -0.01600
Br1451     Br  0.24060254  0.05815685  0.12236437    -0.01600
Br1452     Br  0.22144018  0.01616514  0.06771661    -0.01600
C1453       C  0.34291839  0.15933619  0.19593978    -0.02700
C1454       C  0.35730565  0.14934088  0.20676663     0.07000
C1455       C  0.34543514  0.12610888  0.22088036    -0.02800
C1456       C  0.31933889  0.11330902  0.22513556    -0.02800
C1457       C  0.30480578  0.12408958  0.21605251     0.07100
C1458       C  0.31727181  0.14768377  0.20171303    -0.03000
Br1459     Br  0.30088649  0.16610970  0.19031779    -0.01500
Br1460     Br  0.35834672  0.18881464  0.17140220    -0.01600
Br1461     Br  0.30464553  0.08181729  0.24539793    -0.01600
Br1462     Br  0.36514785  0.11229055  0.23566764    -0.01600
C1463       C  0.12685480  0.99152627  0.25076076    -0.02700
C1464       C  0.15092940  0.00688935  0.26293470     0.07000
C1465       C  0.15876750  0.99734806  0.28657241    -0.02800
C1466       C  0.14505867  0.97212034  0.29411339    -0.02800
C1467       C  0.12238087  0.95633691  0.27985188     0.07100
C1468       C  0.11256765  0.96646469  0.25964516    -0.03000
Br1469     Br  0.08014563  0.94552666  0.24284105    -0.01500
Br1470     Br  0.11346767  0.00353620  0.22053232    -0.01600
Br1471     Br  0.15777105  0.95896738  0.32383354    -0.01600
Br1472     Br  0.18819918  0.01866653  0.30945560    -0.01600
C1473       C  0.48226308  0.85640746  0.35764030    -0.02700
C1474       C  0.45610436  0.84209878  0.35560833     0.07000
C1475       C  0.44520694  0.81748395  0.34502733    -0.02800
C1476       C  0.46041415  0.80751878  0.33607728    -0.02800
C1477       C  0.48661217  0.82244074  0.33647418     0.07100
C1478       C  0.49733967  0.84715518  0.34696491    -0.03000
Br1479     Br  0.53284777  0.87003323  0.34454361    -0.01500
Br1480     Br  0.49814991  0.88895317  0.37601818    -0.01600
Br1481     Br  0.44521061  0.77329584  0.32403756    -0.01600
Br1482     Br  0.40961198  0.79777307  0.34120568    -0.01600
C1483       C  0.42385215  0.87709445  0.26124393    -0.02700
C1484       C  0.42001743  0.89647524  0.27059208     0.07000
C1485       C  0.41821132  0.91204881  0.24940134    -0.02800
C1486       C  0.42153322  0.90899503  0.21885020    -0.02800
C1487       C  0.42741367  0.89071764  0.20948452     0.07100
C1488       C  0.42785021  0.87430473  0.23109858    -0.03000
Br1489     Br  0.43443365  0.84786755  0.22108390    -0.01500
Br1490     Br  0.42260738  0.85347769  0.28999712    -0.01600
Br1491     Br  0.41601410  0.92865370  0.19007900    -0.01600
Br1492     Br  0.41148248  0.93767058  0.26246547    -0.01600
C1493       C  0.45858318  0.92025549  0.47525401    -0.02700
C1494       C  0.45729557  0.90034761  0.45886290     0.07000
C1495       C  0.46386620  0.88404331  0.47215083    -0.02800
C1496       C  0.46344224  0.88554380  0.00499482    -0.02800
C1497       C  0.46661175  0.90640476  0.02110262     0.07100
C1498       C  0.46357653  0.92474678  0.00646497    -0.03000
Br1499     Br  0.46745595  0.95317882  0.02829631    -0.01500
Br1500     Br  0.45070990  0.94325285  0.45628070    -0.01600
Br1501     Br  0.46735948  0.86015489  0.02419030    -0.01600
Br1502     Br  0.46441977  0.85829809  0.44851605    -0.01600
C1503       C  0.35501802  0.87829203  0.47265911    -0.02700
C1504       C  0.34743158  0.87516119  0.44269591     0.07000
C1505       C  0.32224695  0.86656243  0.43580951    -0.02800
C1506       C  0.30450282  0.85905570  0.45881762    -0.02800
C1507       C  0.31180662  0.85952616  0.48848978     0.07100
C1508       C  0.33721163  0.87055527  0.49553940    -0.03000
Br1509     Br  0.34119530  0.88069957  0.02818097    -0.01500
Br1510     Br  0.38964045  0.89189666  0.48231712    -0.01600
Br1511     Br  0.26997314  0.84691033  0.44990575    -0.01600
Br1512     Br  0.31149950  0.86202814  0.39490386    -0.01600
C1513       C  0.28912229  0.78258776  0.35719052    -0.02700
C1514       C  0.28261852  0.77984630  0.32690701     0.07000
C1515       C  0.30124904  0.79225978  0.30526541    -0.02800
C1516       C  0.32553763  0.80976100  0.31396405    -0.02800
C1517       C  0.33158676  0.81387083  0.34436213     0.07100
C1518       C  0.31366696  0.79933793  0.36592521    -0.03000
Br1519     Br  0.32197213  0.80424539  0.40768395    -0.01500
Br1520     Br  0.26400330  0.76484304  0.38677180    -0.01600
Br1521     Br  0.35014383  0.82912567  0.28438610    -0.01600
Br1522     Br  0.29317555  0.78592322  0.26363580    -0.01600
C1523       C  0.62276713  0.14132719  0.40189434    -0.02700
C1524       C  0.61141503  0.15624904  0.40353791     0.07000
C1525       C  0.62567746  0.18113392  0.41306876    -0.02800
C1526       C  0.65071625  0.19064713  0.42166937    -0.02800
C1527       C  0.66141926  0.17524732  0.42136471     0.07100
C1528       C  0.64710060  0.15039479  0.41200377    -0.03000
Br1529     Br  0.65970482  0.12752592  0.41523500    -0.01500
Br1530     Br  0.60591540  0.10850137  0.38420907    -0.01600
Br1531     Br  0.67048834  0.22487564  0.43335934    -0.01600
Br1532     Br  0.61110955  0.20220039  0.41528123    -0.01600
C1533       C  0.46271481  0.98798861  0.35339725    -0.02700
C1534       C  0.44105377  0.97292883  0.36988054     0.07000
C1535       C  0.43198628  0.98394903  0.39008481    -0.02800
C1536       C  0.44427538  0.01001208  0.39330400    -0.02800
C1537       C  0.46724561  0.02506957  0.37861587     0.07100
C1538       C  0.47655716  0.01351104  0.35902060    -0.03000
Br1539     Br  0.50904982  0.03131049  0.34061132    -0.01500
Br1540     Br  0.47369867  0.97346059  0.32279847    -0.01600
Br1541     Br  0.43034277  0.02437498  0.41987948    -0.01600
Br1542     Br  0.40454354  0.96318275  0.41583870    -0.01600
C1543       C  0.50505653  0.08047367  0.00675579    -0.02700
C1544       C  0.51834927  0.10187771  0.48574390     0.07000
C1545       C  0.54021411  0.12309813  0.49464386    -0.02800
C1546       C  0.54895810  0.12284510  0.02525304    -0.02800
C1547       C  0.53403830  0.10481878  0.04694009     0.07100
C1548       C  0.51174780  0.08362834  0.03725630    -0.03000
Br1549     Br  0.48946623  0.05897553  0.06512093    -0.01500
Br1550     Br  0.47633499  0.05062641  0.99304170    -0.01600
Br1551     Br  0.58041406  0.15189516  0.03461859    -0.01600
Br1552     Br  0.55722660  0.15014590  0.46687746    -0.01600
C1553       C  0.57626606  0.11311729  0.28502004    -0.02700
C1554       C  0.55247993  0.10029216  0.29778365     0.07000
C1555       C  0.53196290  0.08404994  0.28023186    -0.02800
C1556       C  0.53531861  0.08065171  0.24992103    -0.02800
C1557       C  0.55896178  0.09459967  0.23653786     0.07100
C1558       C  0.57949966  0.11064192  0.25445872    -0.03000
Br1559     Br  0.61169429  0.13176735  0.23731312    -0.01500
Br1560     Br  0.60413410  0.13572130  0.30923008    -0.01600
Br1561     Br  0.50723347  0.05712979  0.22678639    -0.01600
Br1562     Br  0.49872705  0.06916676  0.29648940    -0.01600
C1563       C  0.48603188  0.13119475  0.28286666    -0.02700
C1564       C  0.47505130  0.12692443  0.31139663     0.07000
C1565       C  0.45351308  0.12890853  0.31580040    -0.02800
C1566       C  0.44455704  0.13739067  0.29249263    -0.02800
C1567       C  0.45682237  0.14333113  0.26487750     0.07100
C1568       C  0.47627169  0.13842607  0.25950370    -0.03000
Br1569     Br  0.49041757  0.14286972  0.22021796    -0.01500
Br1570     Br  0.51600488  0.12983963  0.27570714    -0.01600
Br1571     Br  0.41708932  0.14316706  0.29892411    -0.01600
Br1572     Br  0.43846584  0.12367283  0.35466077    -0.01600
C1573       C  0.51239066  0.22140627  0.41690961    -0.02700
C1574       C  0.49408228  0.21396117  0.43925603     0.07000
C1575       C  0.48718334  0.19199927  0.45503701    -0.02800
C1576       C  0.49617990  0.17617099  0.44635558    -0.02800
C1577       C  0.51149812  0.18161369  0.42092915     0.07100
C1578       C  0.52063223  0.20502044  0.40710400    -0.03000
Br1579     Br  0.54279377  0.21426708  0.37333793    -0.01500
Br1580     Br  0.52608899  0.25388735  0.39985636    -0.01600
Br1581     Br  0.48757338  0.14709435  0.46988020    -0.01600
Br1582     Br  0.46534997  0.18364498  0.48901052    -0.01600
C1583       C  0.53093708  0.34904033  0.43689308    -0.02700
C1584       C  0.50893192  0.33426235  0.42045660     0.07000
C1585       C  0.50421951  0.34396746  0.39454566    -0.02800
C1586       C  0.52083449  0.36832085  0.38575883    -0.02800
C1587       C  0.54227557  0.38337046  0.40267920     0.07100
C1588       C  0.54763843  0.37348503  0.42782521    -0.03000
Br1589     Br  0.57665796  0.39406964  0.45128869    -0.01500
Br1590     Br  0.53681245  0.33729099  0.47406139    -0.01600
Br1591     Br  0.51329755  0.38161929  0.35116115    -0.01600
Br1592     Br  0.47441981  0.32457766  0.37141500    -0.01600
C1593       C  0.45497307  0.25070024  0.34658737    -0.02700
C1594       C  0.43046954  0.24029622  0.35728939     0.07000
C1595       C  0.41042549  0.22599979  0.33824562    -0.02800
C1596       C  0.41484711  0.22047341  0.30925418    -0.02800
C1597       C  0.43946193  0.23082597  0.29851506     0.07100
C1598       C  0.45951811  0.24645780  0.31715819    -0.03000
Br1599     Br  0.49338778  0.26258212  0.30270053    -0.01500
Br1600     Br  0.48251296  0.27007582  0.37275134    -0.01600
Br1601     Br  0.38714976  0.19685541  0.28564131    -0.01600
Br1602     Br  0.37704746  0.21509149  0.35124193    -0.01600
C1603       C  0.45990383  0.22634368  0.06643332    -0.02700
C1604       C  0.43954252  0.21669213  0.04628784     0.07000
C1605       C  0.41553530  0.19885478  0.05687805    -0.02800
C1606       C  0.41180090  0.19295157  0.08738203    -0.02800
C1607       C  0.43185295  0.20402069  0.10711708     0.07100
C1608       C  0.45584825  0.22018260  0.09662910    -0.03000
Br1609     Br  0.48336424  0.23400097  0.12419829    -0.01500
Br1610     Br  0.49405867  0.24688751  0.05366874    -0.01600
Br1611     Br  0.37931319  0.16959509  0.10252837    -0.01600
Br1612     Br  0.38733437  0.18150670  0.03073084    -0.01600
C1613       C  0.17889908  0.04091797  0.97231769    -0.02700
C1614       C  0.16794822  0.05248016  0.48829685     0.07000
C1615       C  0.14882577  0.04158235  0.50969179    -0.02800
C1616       C  0.14109067  0.01745498  0.52008555    -0.02800
C1617       C  0.15338414  0.00646178  0.00587067     0.07100
C1618       C  0.16948928  0.01614714  0.98100300    -0.03000
Br1619     Br  0.17911946  0.99580268  0.95827293    -0.01500
Br1620     Br  0.20204494  0.05395001  0.93942341    -0.01600
Br1621     Br  0.11971574  0.00565707  0.55464357    -0.01600
Br1622     Br  0.13308282  0.05937365  0.52490354    -0.01600
C1623       C  0.31922458  0.21473961  0.48713128    -0.02700
C1624       C  0.30317524  0.19607795  0.46708303     0.07000
C1625       C  0.31360340  0.18889580  0.44378071    -0.02800
C1626       C  0.33933803  0.19796662  0.44253071    -0.02800
C1627       C  0.35546568  0.21692473  0.46197888     0.07100
C1628       C  0.34532621  0.22535855  0.48428405    -0.03000
Br1629     Br  0.36720189  0.24942459  0.51290977    -0.01500
Br1630     Br  0.30568270  0.22509885  0.51917792    -0.01600
Br1631     Br  0.35403708  0.23027076  0.89642104    -0.01600
Br1632     Br  0.29284838  0.20469026  0.90752215    -0.01600
C1633       C  0.10621308  0.15076938  0.50889939    -0.02700
C1634       C  0.11438767  0.17282608  0.02993157     0.07000
C1635       C  0.13725688  0.18172692  0.04461117    -0.02800
C1636       C  0.15412821  0.17394234  0.03588798    -0.02800
C1637       C  0.14807729  0.15642211  0.01240326     0.07100
C1638       C  0.12311062  0.14308117  0.49963918    -0.03000
Br1639     Br  0.11353458  0.11998197  0.46678090    -0.01500
Br1640     Br  0.07291409  0.13485685  0.49336575    -0.01600
Br1641     Br  0.18554440  0.18831046  0.05680342    -0.01600
Br1642     Br  0.14546518  0.20489431  0.07717965    -0.01600
C1643       C  0.24957123  0.13838161  0.08503530    -0.02700
C1644       C  0.23102855  0.14109597  0.07019346     0.07000
C1645       C  0.20780509  0.13295130  0.08403282    -0.02800
C1646       C  0.20377007  0.12413532  0.11325902    -0.02800
C1647       C  0.22253146  0.12217774  0.12840517     0.07100
C1648       C  0.24533980  0.12902629  0.11416500    -0.03000
Br1649     Br  0.27001609  0.12365292  0.13339163    -0.01500
Br1650     Br  0.28016666  0.14583247  0.06516854    -0.01600
Br1651     Br  0.17225295  0.11462651  0.13229552    -0.01600
Br1652     Br  0.18000490  0.12995374  0.06169400    -0.01600
C1653       C  0.20790430  0.11666296  0.35791917    -0.02700
C1654       C  0.22080316  0.11160472  0.38048221     0.07000
C1655       C  0.23721923  0.10288701  0.37194426    -0.02800
C1656       C  0.24063190  0.09940469  0.34157457    -0.02800
C1657       C  0.22770753  0.10444974  0.31948237     0.07100
C1658       C  0.21116489  0.11280655  0.32790832    -0.03000
Br1659     Br  0.19135558  0.11787161  0.29856993    -0.01500
Br1660     Br  0.18573344  0.12964344  0.36645540    -0.01600
Br1661     Br  0.26370794  0.08842948  0.33022562    -0.01600
Br1662     Br  0.25470979  0.09462621  0.40113972    -0.01600
C1663       C  0.45866906  0.63584534  0.12229247    -0.02700
C1664       C  0.44707916  0.61750894  0.10008652     0.07000
C1665       C  0.44993157  0.62458817  0.07004072    -0.02800
C1666       C  0.46537036  0.64942017  0.06192077    -0.02800
C1667       C  0.47859682  0.66751248  0.08391011     0.07100
C1668       C  0.47452739  0.66081305  0.11420222    -0.03000
Br1669     Br  0.49043879  0.68593704  0.14439083    -0.01500
Br1670     Br  0.45367903  0.62656439  0.16367804    -0.01600
Br1671     Br  0.46969902  0.65792617  0.02013366    -0.01600
Br1672     Br  0.43336919  0.60008686  0.03966018    -0.01600
C1673       C  0.28872879  0.51747235  0.07476260    -0.02700
C1674       C  0.27618601  0.49537039  0.05837488     0.07000
C1675       C  0.28974032  0.48516799  0.04525477    -0.02800
C1676       C  0.31515768  0.49529224  0.05125934    -0.02800
C1677       C  0.32718586  0.51535438  0.07152286     0.07100
C1678       C  0.31434559  0.52785187  0.08086532    -0.03000
Br1679     Br  0.33084500  0.55865024  0.10265744    -0.01500
Br1680     Br  0.27022423  0.53226498  0.09079924    -0.01600
Br1681     Br  0.33296920  0.48123905  0.03097086    -0.01600
Br1682     Br  0.27332118  0.45665672  0.01945010    -0.01600
C1683       C  0.44789211  0.53758709  0.47265485    -0.02700
C1684       C  0.43384382  0.54753195  0.46012938     0.07000
C1685       C  0.41458961  0.54776692  0.47660337    -0.02800
C1686       C  0.40732979  0.53826718  0.00521370    -0.02800
C1687       C  0.42159560  0.52875355  0.01785520     0.07100
C1688       C  0.43951810  0.52670658  0.00073010    -0.03000
Br1689     Br  0.45758500  0.51191308  0.01761669    -0.01500
Br1690     Br  0.47464309  0.53742757  0.45061681    -0.01600
Br1691     Br  0.38334163  0.54209625  0.02836515    -0.01600
Br1692     Br  0.39468670  0.56078495  0.45977530    -0.01600
C1693       C  0.42202186  0.54584379  0.23149077    -0.02700
C1694       C  0.43979461  0.55676246  0.20844984     0.07000
C1695       C  0.46538229  0.57000640  0.21574235    -0.02800
C1696       C  0.47296279  0.57215370  0.24561132    -0.02800
C1697       C  0.45514046  0.56278765  0.26859686     0.07100
C1698       C  0.42961236  0.54904606  0.26127891    -0.03000
Br1699     Br  0.40411182  0.53462717  0.29148395    -0.01500
Br1700     Br  0.38682436  0.52585208  0.22320133    -0.01600
Br1701     Br  0.50779863  0.58612369  0.25481484    -0.01600
Br1702     Br  0.49039938  0.58708303  0.18556924    -0.01600
C1703       C  0.62910241  0.48415749  0.13496839    -0.02700
C1704       C  0.61353726  0.46274219  0.15148658     0.07000
C1705       C  0.62276907  0.45712838  0.17704912    -0.02800
C1706       C  0.64702995  0.47352297  0.18704740    -0.02800
C1707       C  0.66250476  0.49532094  0.17087571     0.07100
C1708       C  0.65347960  0.50035357  0.14449280    -0.03000
Br1709     Br  0.67378559  0.52993641  0.12163073    -0.01500
Br1710     Br  0.61668777  0.49190625  0.09963590    -0.01600
Br1711     Br  0.65741770  0.46763165  0.22518470    -0.01600
Br1712     Br  0.60141853  0.42815304  0.19992639    -0.01600
C1713       C  0.54552755  0.42221129  0.27862241    -0.02700
C1714       C  0.54570402  0.44113287  0.29618135     0.07000
C1715       C  0.54001455  0.45818240  0.28291794    -0.02800
C1716       C  0.53318873  0.45571785  0.25275419    -0.02800
C1717       C  0.52991414  0.43499383  0.23614376     0.07100
C1718       C  0.53710880  0.41883478  0.24903207    -0.03000
Br1719     Br  0.53916319  0.39422712  0.22513092    -0.01500
Br1720     Br  0.55832462  0.40177120  0.29407951    -0.01600
Br1721     Br  0.53134231  0.48245038  0.23403600    -0.01600
Br1722     Br  0.54507217  0.48708560  0.30481510    -0.01600
C1723       C  0.57299265  0.45521839  0.02792560    -0.02700
C1724       C  0.55432058  0.45623090  0.04506811     0.07000
C1725       C  0.53951201  0.46510350  0.03191009    -0.02800
C1726       C  0.54316251  0.47254673  0.00193126    -0.02800
C1727       C  0.56587496  0.47139463  0.48755248     0.07100
C1728       C  0.58011702  0.46201163  0.50068168    -0.03000
Br1729     Br  0.60360009  0.45749553  0.47713779    -0.01500
Br1730     Br  0.59396930  0.44343265  0.04463568    -0.01600
Br1731     Br  0.52193941  0.48318319  0.98351282    -0.01600
Br1732     Br  0.51300649  0.46572439  0.05385289    -0.01600
C1733       C  0.45200194  0.31070064  0.05308127    -0.02700
C1734       C  0.45555890  0.31877979  0.02333770     0.07000
C1735       C  0.46668840  0.34421066  0.01701110    -0.02800
C1736       C  0.47618054  0.36162969  0.04030341    -0.02800
C1737       C  0.47324734  0.35360369  0.07007828     0.07100
C1738       C  0.46066035  0.32808456  0.07645109    -0.03000
Br1739     Br  0.45835034  0.31703171  0.11699296    -0.01500
Br1740     Br  0.43705163  0.27584492  0.06158131    -0.01600
Br1741     Br  0.49586715  0.39636846  0.03122435    -0.01600
Br1742     Br  0.46599787  0.35213552  0.47756477    -0.01600
C1743       C  0.45238891  0.44435746  0.10884806    -0.02700
C1744       C  0.46633999  0.44931594  0.13520679     0.07000
C1745       C  0.46415556  0.46423278  0.15731599    -0.02800
C1746       C  0.45011383  0.47595333  0.15215443    -0.02800
C1747       C  0.43857532  0.47336287  0.12442327     0.07100
C1748       C  0.43891714  0.45674023  0.10315230    -0.03000
Br1749     Br  0.42221420  0.45195150  0.06560982    -0.01500
Br1750     Br  0.45174683  0.42056673  0.08074603    -0.01600
Br1751     Br  0.44584431  0.49489619  0.18353769    -0.01600
Br1752     Br  0.47957957  0.46790090  0.19522142    -0.01600
C1753       C  0.52387424  0.32619495  0.16811310    -0.02700
C1754       C  0.51182873  0.33943287  0.17768066     0.07000
C1755       C  0.49281487  0.32838877  0.19971130    -0.02800
C1756       C  0.48395895  0.30379717  0.20852737    -0.02800
C1757       C  0.49397690  0.28987742  0.19616305     0.07100
C1758       C  0.51514928  0.30163199  0.17786202    -0.03000
Br1759     Br  0.53174828  0.28378808  0.16572804    -0.01500
Br1760     Br  0.55111280  0.34023246  0.14011808    -0.01600
Br1761     Br  0.45791258  0.28892471  0.23817671    -0.01600
Br1762     Br  0.47783701  0.34598562  0.21846894    -0.01600
C1763       C  0.17814555  0.51851001  0.31594687    -0.02700
C1764       C  0.17077347  0.51565662  0.34595942     0.07000
C1765       C  0.18039594  0.50537868  0.36621526    -0.02800
C1766       C  0.19467415  0.49508672  0.35581614    -0.02800
C1767       C  0.20211856  0.49780893  0.32572570     0.07100
C1768       C  0.19490550  0.51080453  0.30617967    -0.03000
Br1769     Br  0.20652093  0.51659925  0.26565729    -0.01500
Br1770     Br  0.16408199  0.53163129  0.28816251    -0.01600
Br1771     Br  0.20222737  0.47560552  0.38257740    -0.01600
Br1772     Br  0.17309346  0.50427271  0.40815295    -0.01600
C1773       C  0.20942849  0.41514006  0.44649926    -0.02700
C1774       C  0.22047924  0.43879130  0.45988290     0.07000
C1775       C  0.23825947  0.45960230  0.44388321    -0.02800
C1776       C  0.24347520  0.45709810  0.41404456    -0.02800
C1777       C  0.23115524  0.43376459  0.40011044     0.07100
C1778       C  0.21442460  0.41274987  0.41642386    -0.03000
Br1779     Br  0.19707801  0.38104943  0.39667513    -0.01500
Br1780     Br  0.18623832  0.38622418  0.46846349    -0.01600
Br1781     Br  0.26535215  0.48618091  0.39130667    -0.01600
Br1782     Br  0.25550233  0.49178105  0.46269033    -0.01600
C1783       C  0.19908521  0.42012298  0.16480587    -0.02700
C1784       C  0.18470062  0.43008330  0.15279302     0.07000
C1785       C  0.17320191  0.43893358  0.17324903    -0.02800
C1786       C  0.18110825  0.44369460  0.20306417    -0.02800
C1787       C  0.19850547  0.43742419  0.21346716     0.07100
C1788       C  0.20543384  0.42341269  0.19525163    -0.03000
Br1789     Br  0.22339902  0.40847915  0.21245847    -0.01500
Br1790     Br  0.20908502  0.40050261  0.14117135    -0.01600
Br1791     Br  0.16738866  0.45782457  0.23028985    -0.01600
Br1792     Br  0.14446040  0.44172773  0.16266787    -0.01600
C1793       C  0.32165477  0.45813070  0.22667109    -0.02700
C1794       C  0.30003392  0.46028160  0.22392183     0.07000
C1795       C  0.29481262  0.46757737  0.19635516    -0.02800
C1796       C  0.31183781  0.47444334  0.17291131    -0.02800
C1797       C  0.33467171  0.47524558  0.17696187     0.07100
C1798       C  0.33872706  0.46517977  0.20284728    -0.03000
Br1799     Br  0.36815808  0.46222140  0.20600503    -0.01500
Br1800     Br  0.33001753  0.44909744  0.26409009    -0.01600
Br1801     Br  0.30375379  0.48273799  0.13490625    -0.01600
Br1802     Br  0.26535705  0.47020093  0.19044212    -0.01600
C1803       C  0.33346824  0.50418115  0.35992722    -0.02700
C1804       C  0.32344758  0.51184516  0.33647405     0.07000
C1805       C  0.33837527  0.53599592  0.32459605    -0.02800
C1806       C  0.36281194  0.55162108  0.33530653    -0.02800
C1807       C  0.37313038  0.54301131  0.35684929     0.07100
C1808       C  0.35803856  0.51960833  0.36978102    -0.03000
Br1809     Br  0.37124663  0.50855367  0.40146014    -0.01500
Br1810     Br  0.31439346  0.47220909  0.37888600    -0.01600
Br1811     Br  0.38288637  0.58434018  0.31906456    -0.01600
Br1812     Br  0.32715907  0.54711378  0.29108556    -0.01600
C1813       C  0.99712464  0.16240074  0.27901517    -0.02700
C1814       C  0.98911792  0.15085253  0.25089730     0.07000
C1815       C  0.00576244  0.14682395  0.23329385    -0.02800
C1816       C  0.03043179  0.15557513  0.24300187    -0.02800
C1817       C  0.03891482  0.16910735  0.26973835     0.07100
C1818       C  0.02197271  0.17195877  0.28799145    -0.03000
Br1819     Br  0.03329862  0.19049416  0.32466959    -0.01500
Br1820     Br  0.97423422  0.16581744  0.30526864    -0.01600
Br1821     Br  0.05297617  0.15025861  0.21885237    -0.01600
Br1822     Br  0.99594487  0.13191242  0.19437048    -0.01600
C1823       C  0.21387978  0.34555825  0.30784617    -0.02700
C1824       C  0.20374678  0.35969016  0.29593759     0.07000
C1825       C  0.18059408  0.34727444  0.28100674    -0.02800
C1826       C  0.16705262  0.32128371  0.27995743    -0.02800
C1827       C  0.17702963  0.30719969  0.29216124     0.07100
C1828       C  0.20079824  0.31949281  0.30536296    -0.03000
Br1829     Br  0.21498305  0.30062374  0.32171080    -0.01500
Br1830     Br  0.24489538  0.36128305  0.32942477    -0.01600
Br1831     Br  0.13482447  0.30524086  0.26086454    -0.01600
Br1832     Br  0.16739509  0.36547530  0.26027679    -0.01600
C1833       C  0.13363347  0.13130898  0.25604506    -0.02700
C1834       C  0.14561207  0.15669263  0.24813086     0.07000
C1835       C  0.16526736  0.16568860  0.22705834    -0.02800
C1836       C  0.17488219  0.15061963  0.21744272    -0.02800
C1837       C  0.16500679  0.12632645  0.22847303     0.07100
C1838       C  0.14340239  0.11622741  0.24627270    -0.03000
Br1839     Br  0.12829360  0.08232433  0.25938083    -0.01500
Br1840     Br  0.10482928  0.11700892  0.28173844    -0.01600
Br1841     Br  0.20196921  0.16365825  0.18898053    -0.01600
Br1842     Br  0.17961054  0.19879894  0.21076993    -0.01600
C1843       C  0.20079624  0.20631214  0.35481419    -0.02700
C1844       C  0.17993899  0.20928064  0.36003709     0.07000
C1845       C  0.17019910  0.20621502  0.38903436    -0.02800
C1846       C  0.17955758  0.19798434  0.41194051    -0.02800
C1847       C  0.19850731  0.19235760  0.40607308     0.07100
C1848       C  0.21006335  0.19774838  0.37787716    -0.03000
Br1849     Br  0.23765539  0.19232157  0.37060508    -0.01500
Br1850     Br  0.21533175  0.21213448  0.31561599    -0.01600
Br1851     Br  0.16559376  0.19342672  0.45133661    -0.01600
Br1852     Br  0.14328555  0.21238498  0.39738282    -0.01600
C1853       C  0.11863947  0.21033548  0.17814156    -0.02700
C1854       C  0.12925918  0.23397201  0.19134181     0.07000
C1855       C  0.13195701  0.25423910  0.17469199    -0.02800
C1856       C  0.12249759  0.25058702  0.14558941    -0.02800
C1857       C  0.11104674  0.22669377  0.13282595     0.07100
C1858       C  0.10934448  0.20661865  0.14909975    -0.03000
Br1859     Br  0.09390763  0.17371514  0.13201817    -0.01500
Br1860     Br  0.11577515  0.18255078  0.20005414    -0.01600
Br1861     Br  0.12310720  0.27787271  0.12458085    -0.01600
Br1862     Br  0.14957026  0.28706805  0.19132046    -0.01600
C1863       C  0.10172157  0.25122350  0.42219834    -0.02700
C1864       C  0.08869444  0.23114883  0.44150153     0.07000
C1865       C  0.07851408  0.20682607  0.43068728    -0.02800
C1866       C  0.08016824  0.20234875  0.40037577    -0.02800
C1867       C  0.09365076  0.22239731  0.38074237     0.07100
C1868       C  0.10467434  0.24695021  0.39198917    -0.03000
Br1869     Br  0.12579409  0.27496026  0.36730401    -0.01500
Br1870     Br  0.11583715  0.28448333  0.43749869    -0.01600
Br1871     Br  0.06358920  0.16844573  0.38639114    -0.01600
Br1872     Br  0.06406915  0.17954842  0.45816714    -0.01600
Fe1873     Fe  0.11031342  0.23822952  0.78587695     1.65800
Fe1874     Fe  0.16211988  0.23265986  0.77524183     1.73200
Fe1875     Fe  0.11305137  0.18880877  0.81396996     1.54400
O1876       O  0.10673225  0.20604617  0.84896740    -0.82500
O1877       O  0.15664313  0.19756252  0.76607069    -0.80800
O1878       O  0.10239610  0.23713173  0.83076692    -0.85000
O1879       O  0.07620767  0.20726256  0.77830441    -0.79900
O1880       O  0.14625596  0.19684798  0.83416516    -0.81600
O1881       O  0.14890951  0.23317033  0.73332500    -0.84400
C1882       C  0.06548012  0.18472641  0.78583019     0.96400
C1883       C  0.10232703  0.22378984  0.85216855     1.03800
O1884       O  0.12840316  0.22000075  0.79167520    -1.13400
O1885       O  0.17396434  0.26999655  0.78132470    -0.75800
O1886       O  0.14066788  0.27265913  0.79295576    -0.79300
O1887       O  0.07693019  0.17524230  0.79858731    -0.80000
C1888       C  0.16378073  0.28258526  0.78850597     0.95300
O1889       O  0.11687360  0.24005210  0.74049076    -0.77900
O1890       O  0.17708183  0.23229421  0.81638063    -0.83100
C1891       C  0.13896427  0.17532530  0.76717651     0.97900
C1892       C  0.16850178  0.21462267  0.83499417     1.03800
O1893       O  0.11866562  0.16947362  0.78031202    -0.78800
C1894       C  0.13131554  0.23624467  0.72379496     1.02100
Fe1895     Fe  0.20945330  0.43323825  0.81003416     1.65800
Fe1896     Fe  0.26754414  0.43985124  0.81229893     1.73200
Fe1897     Fe  0.25891413  0.48407105  0.77969857     1.54400
O1898       O  0.23369690  0.46588505  0.74535685    -0.82500
O1899       O  0.29617767  0.47493117  0.82254810    -0.80800
O1900       O  0.20059573  0.43282755  0.76545239    -0.85000
O1901       O  0.20498049  0.46307655  0.81882174    -0.79900
O1902       O  0.28470786  0.47890790  0.75673134    -0.81600
O1903       O  0.25526224  0.43633165  0.85622195    -0.84400
C1904       C  0.21608819  0.48581676  0.81282280     0.96400
C1905       C  0.21252864  0.44618219  0.74322837     1.03800
O1906       O  0.24516768  0.45233200  0.80078823    -1.13400
O1907       O  0.24309243  0.40276727  0.80285654    -0.75800
O1908       O  0.20588364  0.39913326  0.80381072    -0.79300
O1909       O  0.23631888  0.49617107  0.79859157    -0.80000
C1910       C  0.21969075  0.38974784  0.80097170     0.95300
O1911       O  0.21738217  0.43291765  0.85445659    -0.77900
O1912       O  0.28166072  0.44314768  0.76973062    -0.83100
C1913       C  0.30005222  0.49693195  0.82421965     0.97900
C1914       C  0.28991947  0.46187032  0.75282250     1.03800
O1915       O  0.28508990  0.50302437  0.81278595    -0.78800
C1916       C  0.23593151  0.43465898  0.86866364     1.02100
Fe1917     Fe  0.54188789  0.45167203  0.64466508     1.65800
Fe1918     Fe  0.54254051  0.40093445  0.61702583     1.73200
Fe1919     Fe  0.49122298  0.39419835  0.65189850     1.54400
O1920       O  0.50234936  0.40631256  0.69466890    -0.82500
O1921       O  0.51010036  0.37475803  0.59623102    -0.80800
O1922       O  0.53317071  0.44573800  0.68969422    -0.85000
O1923       O  0.51138202  0.45523843  0.63567307    -0.79900
O1924       O  0.49733078  0.36500429  0.66004792    -0.81600
O1925       O  0.54895075  0.42409323  0.58139214    -0.84400
C1926       C  0.48826813  0.44160590  0.63912636     0.96400
C1927       C  0.51891261  0.42684786  0.70536919     1.03800
O1928       O  0.52533794  0.41589902  0.63778104    -1.13400
O1929       O  0.57806610  0.42449118  0.63355208    -0.75800
O1930       O  0.57586459  0.45550593  0.65483516    -0.79300
O1931       O  0.47854839  0.41904054  0.64613378    -0.80000
C1932       C  0.58796809  0.44492368  0.64741561     0.95300
O1933       O  0.55154154  0.45887785  0.59985437    -0.77900
O1934       O  0.53679961  0.37678126  0.65167664    -0.83100
C1935       C  0.48794318  0.37059482  0.59340092     0.97900
C1936       C  0.51576846  0.36157563  0.66255796     1.03800
O1937       O  0.47872313  0.38059007  0.60987793    -0.78800
C1938       C  0.55260519  0.44599091  0.57828502     1.02100
Fe1939     Fe  0.44247334  0.54507596  0.61261226     1.65800
Fe1940     Fe  0.38527262  0.49425321  0.60119651     1.73200
Fe1941     Fe  0.39025996  0.54627764  0.63273592     1.54400
O1942       O  0.41438327  0.55766641  0.66836415    -0.82500
O1943       O  0.35571834  0.49901327  0.58881977    -0.80800
O1944       O  0.44618243  0.55158182  0.65796051    -0.85000
O1945       O  0.44786230  0.57984800  0.60482016    -0.79900
O1946       O  0.36567625  0.51479925  0.65630283    -0.81600
O1947       O  0.40093395  0.50595737  0.55956053    -0.84400
C1948       C  0.43506108  0.59047357  0.60425744     0.96400
C1949       C  0.43381682  0.55710530  0.67605015     1.03800
O1950       O  0.40607798  0.52851239  0.61560048    -1.13400
O1951       O  0.40933771  0.48145102  0.61201269    -0.75800
O1952       O  0.44565276  0.51451053  0.62010580    -0.79300
O1953       O  0.41230589  0.57961508  0.61133776    -0.80000
C1954       C  0.43194937  0.49139631  0.61914695     0.95300
O1955       O  0.43913764  0.53884118  0.56730836    -0.77900
O1956       O  0.36871038  0.48184863  0.64203277    -0.83100
C1957       C  0.35027485  0.51612110  0.58799115     0.97900
C1958       C  0.36001088  0.49217759  0.65880702     1.03800
O1959       O  0.36462839  0.53721766  0.59898369    -0.78800
C1960       C  0.42148312  0.52393777  0.55038569     1.02100
Fe1961     Fe  0.23697809  0.13021977  0.97578677     1.65800
Fe1962     Fe  0.22592692  0.17827691  0.98924272     1.73200
Fe1963     Fe  0.18359247  0.12742093  0.95094001     1.54400
O1964       O  0.20044385  0.11976896  0.91566091    -0.82500
O1965       O  0.18944855  0.16852841  0.50019586    -0.80800
O1966       O  0.23589447  0.12267080  0.93120210    -0.85000
O1967       O  0.20812381  0.09506543  0.98358166    -0.79900
O1968       O  0.19015695  0.15921597  0.92866931    -0.81600
O1969       O  0.22890415  0.16444030  0.52974487    -0.84400
C1970       C  0.18478208  0.08316625  0.98043897     0.96400
C1971       C  0.22008900  0.11851998  0.91101987     1.03800
O1972       O  0.21559127  0.14533882  0.97182886    -1.13400
O1973       O  0.26371727  0.19345713  0.98140869    -0.75800
O1974       O  0.26983482  0.16249758  0.96848282    -0.79300
O1975       O  0.17272934  0.09306505  0.97019985    -0.80000
C1976       C  0.27775138  0.18522521  0.97307044     0.95300
O1977       O  0.23398208  0.13126240  0.52281060    -0.77900
O1978       O  0.22248729  0.19257334  0.94889959    -0.83100
C1979       C  0.16820909  0.15287243  0.99816094     0.97900
C1980       C  0.20576185  0.18230091  0.92902170     1.03800
O1981       O  0.16312038  0.13338049  0.98366152    -0.78800
C1982       C  0.23112866  0.14637601  0.53938175     1.02100
Fe1983     Fe  0.42507487  0.22063531  0.95048459     1.65800
Fe1984     Fe  0.43412794  0.27871217  0.93974263     1.73200
Fe1985     Fe  0.47789588  0.27135838  0.97528955     1.54400
O1986       O  0.46198124  0.24798489  0.51196753    -0.82500
O1987       O  0.46919131  0.30790087  0.93193846    -0.80800
O1988       O  0.42851785  0.21393121  0.99476927    -0.85000
O1989       O  0.45430037  0.21530780  0.93933844    -0.79900
O1990       O  0.47089629  0.29611296  0.49786322    -0.81600
O1991       O  0.43357873  0.26507576  0.89760220    -0.84400
C1992       C  0.47744923  0.22633235  0.94411261     0.96400
C1993       C  0.44475056  0.22584905  0.51554379     1.03800
O1994       O  0.44566424  0.25669226  0.95522679    -1.13400
O1995       O  0.39653625  0.25487200  0.94485274    -0.75800
O1996       O  0.39204143  0.21952352  0.96153441    -0.79300
O1997       O  0.48885009  0.24732258  0.95687931    -0.80000
C1998       C  0.38324724  0.23345698  0.95532839     0.95300
O1999       O  0.42124168  0.22495781  0.90539617    -0.77900
O2000       O  0.43517823  0.29318748  0.98150938    -0.83100
C2001       C  0.49131890  0.31212554  0.93091145     0.97900
C2002       C  0.45346047  0.30166592  0.99940885     1.03800
O2003       O  0.49710233  0.29677786  0.94153376    -0.78800
C2004       C  0.42780036  0.24348709  0.88827082     1.02100
Fe2005     Fe  0.53522755  0.09253968  0.89201286     1.65800
Fe2006     Fe  0.53868660  0.14423708  0.86129918     1.73200
Fe2007     Fe  0.48654677  0.10314852  0.90050748     1.54400
O2008       O  0.47145345  0.06555068  0.89094318    -0.82500
O2009       O  0.53242384  0.16578356  0.89157125    -0.80800
O2010       O  0.50354010  0.05966852  0.88671107    -0.85000
O2011       O  0.52914018  0.09223663  0.93713716    -0.79900
O2012       O  0.47344029  0.10670926  0.85934259    -0.81600
O2013       O  0.57343079  0.15592220  0.88018151    -0.84400
C2014       C  0.51442899  0.09573005  0.95360629     0.96400
C2015       C  0.48051187  0.05153595  0.88613435     1.03800
O2016       O  0.52016914  0.11339676  0.88473267    -1.13400
O2017       O  0.54599672  0.12592994  0.82764107    -0.75800
O2018       O  0.54232661  0.09116902  0.84678513    -0.79300
O2019       O  0.49725091  0.09928198  0.94341435    -0.80000
C2020       C  0.54603910  0.10561873  0.82498437     0.95300
O2021       O  0.56978180  0.12173556  0.89939544    -0.77900
O2022       O  0.50735428  0.13747617  0.83846773    -0.83100
C2023       C  0.51305883  0.16103469  0.90639660     0.97900
C2024       C  0.48416892  0.12249192  0.83875427     1.03800
O2025       O  0.49549832  0.13914180  0.91114341    -0.78800
C2026       C  0.58266795  0.14439907  0.89331491     1.02100
Fe2027     Fe  0.44348190  0.90795418  0.86425471     1.65800
Fe2028     Fe  0.39648340  0.85540212  0.89415763     1.73200
Fe2029     Fe  0.38345776  0.89355843  0.85253462     1.54400
O2030       O  0.40442841  0.93174842  0.85758673    -0.82500
O2031       O  0.37194966  0.83273038  0.86215269    -0.80800
O2032       O  0.44152241  0.93913149  0.87261859    -0.85000
O2033       O  0.43844670  0.90939378  0.81874308    -0.79900
O2034       O  0.36695099  0.89161827  0.89320136    -0.81600
O2035       O  0.42253811  0.84616949  0.87782937    -0.84400
C2036       C  0.41991921  0.90219844  0.80133973     0.96400
C2037       C  0.42628634  0.94632645  0.86650310     1.03800
O2038       O  0.40786054  0.88566729  0.87034696    -1.13400
O2039       O  0.41947185  0.87497508  0.92874471    -0.75800
O2040       O  0.45195295  0.90825463  0.90905797    -0.79300
O2041       O  0.39798089  0.89534319  0.81041865    -0.80000
C2042       C  0.44050029  0.89442031  0.93104437     0.95300
O2043       O  0.45083126  0.88000764  0.85514440    -0.77900
O2044       O  0.36894745  0.86011454  0.91421397    -0.83100
C2045       C  0.35597913  0.83576248  0.84815222     0.97900
C2046       C  0.36064396  0.87511738  0.91308814     1.03800
O2047       O  0.35786388  0.85684803  0.84472642    -0.78800
C2048       C  0.44249469  0.85778426  0.86291306     1.02100
Fe2049     Fe  0.23089521  0.12144109  0.72645535     1.65800
Fe2050     Fe  0.18077779  0.06922448  0.70093115     1.73200
Fe2051     Fe  0.22635883  0.06537880  0.73692334     1.54400
O2052       O  0.26366671  0.09157125  0.73105170    -0.82500
O2053       O  0.16298577  0.04611109  0.73672268    -0.80800
O2054       O  0.26377738  0.12422027  0.71269083    -0.85000
O2055       O  0.23750335  0.11831889  0.77118062    -0.79900
O2056       O  0.22547864  0.05041081  0.69543501    -0.81600
O2057       O  0.16873705  0.09335006  0.71568612    -0.84400
C2058       C  0.23227111  0.10005051  0.78823233     0.96400
C2059       C  0.27513532  0.11282368  0.71938383     1.03800
O2060       O  0.21265467  0.08553807  0.72154348    -1.13400
O2061       O  0.19713739  0.09094004  0.66407322    -0.75800
O2062       O  0.22555303  0.12753113  0.68258087    -0.79300
O2063       O  0.22685559  0.07866132  0.77888313    -0.80000
C2064       C  0.21339231  0.11363591  0.66090758     0.95300
O2065       O  0.20040040  0.12396434  0.73974305    -0.77900
O2066       O  0.18758793  0.04263984  0.68215587    -0.83100
C2067       C  0.16949131  0.03144987  0.74783449     0.97900
C2068       C  0.20605036  0.03915732  0.67951260     1.03800
O2069       O  0.19166514  0.03564587  0.74584188    -0.78800
C2070       C  0.17812609  0.11321192  0.73078844     1.02100
Fe2071     Fe  0.42629246  0.21607889  0.70021381     1.65800
Fe2072     Fe  0.47655162  0.21466539  0.72729492     1.73200
Fe2073     Fe  0.43293288  0.16613572  0.68798475     1.54400
O2074       O  0.39508604  0.15494996  0.68984118    -0.82500
O2075       O  0.49598293  0.20959336  0.69292377    -0.80800
O2076       O  0.39361922  0.18567289  0.71220506    -0.85000
O2077       O  0.42152299  0.20738764  0.65511433    -0.79900
O2078       O  0.43125686  0.15111824  0.72935934    -0.81600
O2079       O  0.48869676  0.25065628  0.71248914    -0.84400
C2080       C  0.42909783  0.19613563  0.63793699     0.96400
C2081       C  0.38282937  0.16402641  0.70177353     1.03800
O2082       O  0.44533226  0.19920417  0.70520283    -1.13400
O2083       O  0.45975578  0.22065748  0.76338463    -0.75800
O2084       O  0.42966711  0.22639659  0.74445699    -0.79300
O2085       O  0.43530643  0.18064444  0.64678660    -0.80000
C2086       C  0.44254859  0.22598964  0.76611695     0.95300
O2087       O  0.45656374  0.24912195  0.68867307    -0.77900
O2088       O  0.46823069  0.18089251  0.74587772    -0.83100
C2089       C  0.49031280  0.18878131  0.68148004     0.97900
C2090       C  0.44969113  0.15900165  0.74695108     1.03800
O2091       O  0.46815374  0.17087041  0.68162802    -0.78800
C2092       C  0.47872928  0.26089176  0.69791327     1.02100
Fe2093     Fe  0.11665344  0.88767068  0.53629996     1.65800
Fe2094     Fe  0.11636728  0.93850972  0.56326582     1.73200
Fe2095     Fe  0.16763565  0.94436786  0.52861718     1.54400
O2096       O  0.17889071  0.91789035  0.53161360    -0.82500
O2097       O  0.12389639  0.96387433  0.52961697    -0.80800
O2098       O  0.14670343  0.88501379  0.55029214    -0.85000
O2099       O  0.12927427  0.89548608  0.98893847    -0.79900
O2100       O  0.18015247  0.95722176  0.57122710    -0.81600
O2101       O  0.08136179  0.91585471  0.54384159    -0.84400
C2102       C  0.14264381  0.91453596  0.97302972     0.96400
C2103       C  0.16907043  0.89614876  0.54192265     1.03800
O2104       O  0.13335319  0.92336689  0.54270845    -1.13400
O2105       O  0.10846192  0.91487089  0.59868828    -0.75800
O2106       O  0.10407796  0.87974169  0.57977425    -0.79300
O2107       O  0.15812100  0.93564306  0.98351832    -0.80000
C2108       C  0.10378956  0.89266938  0.60156549     0.95300
O2109       O  0.08385424  0.88499945  0.52243468    -0.77900
O2110       O  0.14885093  0.96326705  0.58546957    -0.83100
C2111       C  0.14545567  0.97915124  0.52014328     0.97900
C2112       C  0.17096105  0.96709965  0.58822689     1.03800
O2113       O  0.16333218  0.97484889  0.52212145    -0.78800
C2114       C  0.07202028  0.89628100  0.52802630     1.02100
Fe2115     Fe  0.21252040  0.78674191  0.56066393     1.65800
Fe2116     Fe  0.26281371  0.78747729  0.52974862     1.73200
Fe2117     Fe  0.26936280  0.83711631  0.56998994     1.54400
O2118       O  0.24361856  0.84955727  0.56534964    -0.82500
O2119       O  0.28790254  0.79209029  0.56289017    -0.80800
O2120       O  0.20925701  0.81687679  0.55124310    -0.85000
O2121       O  0.21789060  0.79426633  0.60623132    -0.79900
O2122       O  0.28370008  0.85165288  0.52862932    -0.81600
O2123       O  0.23834237  0.75075407  0.54342116    -0.84400
C2124       C  0.23663492  0.80759935  0.62269222     0.96400
C2125       C  0.22144905  0.83974441  0.55588913     1.03800
O2126       O  0.24816703  0.80367090  0.55349520    -1.13400
O2127       O  0.23280859  0.77765476  0.99813254    -0.75800
O2128       O  0.20441243  0.77742926  0.51584960    -0.79300
O2129       O  0.25724681  0.82448109  0.61251855    -0.80000
C2130       C  0.21172188  0.77636656  0.99730161     0.95300
O2131       O  0.21014252  0.75384314  0.57044630    -0.77900
O2132       O  0.28883296  0.82086230  0.51095363    -0.83100
C2133       C  0.30300066  0.81263786  0.57505028     0.97900
C2134       C  0.29341266  0.84316743  0.51049755     1.03800
O2135       O  0.29867345  0.83055193  0.57695587    -0.78800
C2136       C  0.21858473  0.74099013  0.55901691     1.02100
Fe2137     Fe  0.21315008  0.78451393  0.81174402     1.65800
Fe2138     Fe  0.16165138  0.72891921  0.82070567     1.73200
Fe2139     Fe  0.21210125  0.73415761  0.78471612     1.54400
O2140       O  0.23107314  0.76432025  0.75669293    -0.82500
O2141       O  0.17069111  0.70530017  0.84125129    -0.80800
O2142       O  0.21618685  0.78939854  0.76568509    -0.85000
O2143       O  0.24787834  0.78688865  0.81329944    -0.79900
O2144       O  0.18382216  0.72061848  0.75479831    -0.81600
O2145       O  0.17013717  0.74851810  0.86086340    -0.84400
C2146       C  0.25613130  0.77191620  0.81596077     0.96400
C2147       C  0.22579188  0.78047637  0.74787740     1.03800
O2148       O  0.19557712  0.74902766  0.80626394    -1.13400
O2149       O  0.14927345  0.75117155  0.80152894    -0.75800
O2150       O  0.18171698  0.78816872  0.81083797    -0.79300
O2151       O  0.24222711  0.74867535  0.81303877    -0.80000
C2152       C  0.15912506  0.77452191  0.80362093     0.95300
O2153       O  0.20959647  0.77946579  0.85759042    -0.77900
O2154       O  0.14994493  0.70556166  0.78312175    -0.83100
C2155       C  0.17954635  0.69262959  0.83024307     0.97900
C2156       C  0.16116542  0.70526832  0.75940344     1.03800
O2157       O  0.19471376  0.70070262  0.80853317    -0.78800
C2158       C  0.19033734  0.76496677  0.87276925     1.02100
Fe2159     Fe  0.11897665  0.88584800  0.78481135     1.65800
Fe2160     Fe  0.06191948  0.83460351  0.77757461     1.73200
Fe2161     Fe  0.06743940  0.88447294  0.81415893     1.54400
O2162       O  0.09081870  0.89062453  0.84905211    -0.82500
O2163       O  0.03244743  0.84046788  0.76988825    -0.80800
O2164       O  0.12648363  0.89582043  0.82935230    -0.85000
O2165       O  0.12141745  0.91927976  0.77503428    -0.79900
O2166       O  0.04154765  0.85164682  0.83388837    -0.81600
O2167       O  0.07379848  0.84626030  0.73499014    -0.84400
C2168       C  0.11033774  0.93055402  0.78399319     0.96400
C2169       C  0.11340336  0.89603838  0.85123154     1.03800
O2170       O  0.08309167  0.86845689  0.79224135    -1.13400
O2171       O  0.08737236  0.82262234  0.78280916    -0.75800
O2172       O  0.12332009  0.85568639  0.79376352    -0.79300
O2173       O  0.09038040  0.92003029  0.79881990    -0.80000
C2174       C  0.11001658  0.83257757  0.78999343     0.95300
O2175       O  0.11312760  0.87738579  0.73962610    -0.77900
O2176       O  0.04831632  0.82123594  0.81930426    -0.83100
C2177       C  0.02824137  0.85842216  0.76875798     0.97900
C2178       C  0.03749666  0.82959821  0.83570474     1.03800
O2179       O  0.04306097  0.87924093  0.78016232    -0.78800
C2180       C  0.09408709  0.86311100  0.72409949     1.02100
Fe2181     Fe  0.89825962  0.45640667  0.64583681     1.65800
Fe2182     Fe  0.89237672  0.50794616  0.65262751     1.73200
Fe2183     Fe  0.84900262  0.45806473  0.61505614     1.54400
O2184       O  0.86660803  0.45102373  0.58057186    -0.82500
O2185       O  0.85720417  0.50294294  0.65906190    -0.80800
O2186       O  0.89753151  0.44705590  0.60082351    -0.85000
O2187       O  0.86733496  0.42264392  0.65428147    -0.79900
O2188       O  0.85693215  0.49092635  0.59431059    -0.81600
O2189       O  0.89143510  0.49601062  0.69545694    -0.84400
C2190       C  0.84524327  0.41134472  0.64479363     0.96400
C2191       C  0.88420155  0.44608744  0.57864143     1.03800
O2192       O  0.88005138  0.47401528  0.63773537    -1.13400
O2193       O  0.92982522  0.51958618  0.64900919    -0.75800
O2194       O  0.93280814  0.48646490  0.63836286    -0.79300
O2195       O  0.83579784  0.42227759  0.63078925    -0.80000
C2196       C  0.94258983  0.50948418  0.64255044     0.95300
O2197       O  0.89918732  0.46443284  0.69131284    -0.77900
O2198       O  0.89326083  0.52152961  0.61060042    -0.83100
C2199       C  0.83516258  0.48494724  0.65999279     0.97900
C2200       C  0.87503772  0.51293698  0.59273397     1.03800
O2201       O  0.82941242  0.46411879  0.64848518    -0.78800
C2202       C  0.89453029  0.47902610  0.70667329     1.02100
Fe2203     Fe  0.09015648  0.54924947  0.61708332     1.65800
Fe2204     Fe  0.09807830  0.60654628  0.60788437     1.73200
Fe2205     Fe  0.14140487  0.59803610  0.64301268     1.54400
O2206       O  0.12861378  0.56800010  0.67181018    -0.82500
O2207       O  0.13104954  0.62858043  0.58627118    -0.80800
O2208       O  0.08852080  0.54435344  0.66264847    -0.85000
O2209       O  0.12107914  0.54444396  0.61394388    -0.79900
O2210       O  0.12888145  0.61397506  0.67295715    -0.81600
O2211       O  0.08494938  0.58629751  0.56845038    -0.84400
C2212       C  0.14438186  0.55846681  0.61054349     0.96400
C2213       C  0.10684755  0.55224772  0.68028256     1.03800
O2214       O  0.11000971  0.58478148  0.62214331    -1.13400
O2215       O  0.06381221  0.58642072  0.62859833    -0.75800
O2216       O  0.05633074  0.54821478  0.61967889    -0.79300
O2217       O  0.15496155  0.58169458  0.61434269    -0.80000
C2218       C  0.04911613  0.56323833  0.62748494     0.95300
O2219       O  0.09092989  0.55369008  0.57162544    -0.77900
O2220       O  0.11124753  0.63026672  0.64482796    -0.83100
C2221       C  0.15292080  0.63964358  0.59662500     0.97900
C2222       C  0.12239853  0.62999239  0.66841680     1.03800
O2223       O  0.15915686  0.63084487  0.61826863    -0.78800
C2224       C  0.08663578  0.56849495  0.55665895     1.02100
Fe2225     Fe  0.78325092  0.57827368  0.95185303     1.65800
Fe2226     Fe  0.83292230  0.56934587  0.94434072     1.73200
Fe2227     Fe  0.78137096  0.52692875  0.98054722     1.54400
O2228       O  0.77829332  0.54208702  0.51848841    -0.82500
O2229       O  0.82631691  0.53379680  0.93747202    -0.80800
O2230       O  0.77205675  0.57598203  0.99588475    -0.85000
O2231       O  0.74937684  0.54894651  0.94029383    -0.79900
O2232       O  0.81746076  0.53220487  0.50208391    -0.81600
O2233       O  0.82120886  0.56933624  0.90163895    -0.84400
C2234       C  0.73697227  0.52665693  0.94853497     0.96400
C2235       C  0.77241673  0.55888072  0.52066837     1.03800
O2236       O  0.79903251  0.55823878  0.95893992    -1.13400
O2237       O  0.84621981  0.60720896  0.94823776    -0.75800
O2238       O  0.81418562  0.61079186  0.96328630    -0.79300
O2239       O  0.74638077  0.51608891  0.96335492    -0.80000
C2240       C  0.83693844  0.62023384  0.95702506     0.95300
O2241       O  0.79288009  0.58161766  0.90686712    -0.77900
O2242       O  0.84569179  0.56870049  0.98648897    -0.83100
C2243       C  0.80781971  0.51207603  0.93667142     0.97900
C2244       C  0.83593841  0.55017882  0.00386187     1.03800
O2245       O  0.78682883  0.50707018  0.94722335    -0.78800
C2246       C  0.80573120  0.57501489  0.89098540     1.02100
Fe2247     Fe  0.88058610  0.77092179  0.97713024     1.65800
Fe2248     Fe  0.93877412  0.77802900  0.98190878     1.73200
Fe2249     Fe  0.92917766  0.81854541  0.94006622     1.54400
O2250       O  0.90126799  0.79853923  0.90930349    -0.82500
O2251       O  0.96705899  0.81191488  0.49212555    -0.80800
O2252       O  0.86987943  0.76674476  0.93297584    -0.85000
O2253       O  0.87735618  0.80185239  0.98193238    -0.79900
O2254       O  0.95167996  0.80891607  0.91654135    -0.81600
O2255       O  0.92528033  0.77129585  0.52422147    -0.84400
C2256       C  0.88919020  0.82434879  0.97457114     0.96400
C2257       C  0.88019758  0.77880110  0.90949229     1.03800
O2258       O  0.91631319  0.78937848  0.96655655    -1.13400
O2259       O  0.91462491  0.74082879  0.97170240    -0.75800
O2260       O  0.87717362  0.73655751  0.97460149    -0.79300
O2261       O  0.90912052  0.83350879  0.95958857    -0.80000
C2262       C  0.89114060  0.72743105  0.97074830     0.95300
O2263       O  0.88984191  0.77229090  0.52136357    -0.77900
O2264       O  0.95544203  0.78028079  0.94162974    -0.83100
C2265       C  0.97261169  0.83629983  0.98456876     0.97900
C2266       C  0.96035522  0.79441232  0.91950713     1.03800
O2267       O  0.95913452  0.84097226  0.96746396    -0.78800
C2268       C  0.90680443  0.77158976  0.53639002     1.02100
Fe2269     Fe  0.88106315  0.76674717  0.72671423     1.65800
Fe2270     Fe  0.88339167  0.81878184  0.69998611     1.73200
Fe2271     Fe  0.83030692  0.77295797  0.73257005     1.54400
O2272       O  0.81801544  0.73828640  0.71393673    -0.82500
O2273       O  0.87016442  0.83630328  0.72852328    -0.80800
O2274       O  0.84950563  0.73254322  0.72420250    -0.85000
O2275       O  0.87575232  0.76757882  0.77196597    -0.79900
O2276       O  0.81956239  0.78312147  0.69365388    -0.81600
O2277       O  0.91537738  0.83128007  0.72553056    -0.84400
C2278       C  0.85635104  0.76358936  0.78634645     0.96400
C2279       C  0.82711168  0.72416885  0.71683785     1.03800
O2280       O  0.86488964  0.78639038  0.71980146    -1.13400
O2281       O  0.89733440  0.80473655  0.66787583    -0.75800
O2282       O  0.88673387  0.76601502  0.68111441    -0.79300
O2283       O  0.83720240  0.76181473  0.77355601    -0.80000
C2284       C  0.89447079  0.78344789  0.66198037     0.95300
O2285       O  0.91588691  0.79637237  0.73153043    -0.77900
O2286       O  0.85454025  0.81102157  0.67137865    -0.83100
C2287       C  0.85136239  0.82860766  0.74569535     0.97900
C2288       C  0.83102831  0.79856313  0.67299087     1.03800
O2289       O  0.83778986  0.80594061  0.75233280    -0.78800
C2290       C  0.92676283  0.81966068  0.73174222     1.02100
Fe2291     Fe  0.77850778  0.57326642  0.70272610     1.65800
Fe2292     Fe  0.72799928  0.52385841  0.73256899     1.73200
Fe2293     Fe  0.72123633  0.56722285  0.69598266     1.54400
O2294       O  0.74774242  0.60486076  0.69841274    -0.82500
O2295       O  0.70322438  0.50473579  0.69852306    -0.80800
O2296       O  0.78205150  0.60646121  0.71484020    -0.85000
O2297       O  0.77246702  0.57764565  0.65811570    -0.79900
O2298       O  0.70914830  0.56845116  0.73852825    -0.81600
O2299       O  0.75167252  0.51165449  0.71624546    -0.84400
C2300       C  0.75316112  0.57139841  0.64231986     0.96400
C2301       C  0.77006257  0.61700347  0.70734490     1.03800
O2302       O  0.74283134  0.55486472  0.71045750    -1.13400
O2303       O  0.75171414  0.54128060  0.76738593    -0.75800
O2304       O  0.78713763  0.57009085  0.74651815    -0.79300
O2305       O  0.73200637  0.56571595  0.65311317    -0.80000
C2306       C  0.77442658  0.55799676  0.76901038     0.95300
O2307       O  0.78076873  0.54284823  0.69008640    -0.77900
O2308       O  0.70246315  0.53147361  0.75355184    -0.83100
C2309       C  0.68767334  0.51017939  0.68768555     0.97900
C2310       C  0.69926040  0.55009424  0.75613690     1.03800
O2311       O  0.69084568  0.53190288  0.69020652    -0.78800
C2312       C  0.77095741  0.52104007  0.69995015     1.02100
Fe2313     Fe  0.54413270  0.45702233  0.89135304     1.65800
Fe2314     Fe  0.59723225  0.46048390  0.86554578     1.73200
Fe2315     Fe  0.59956730  0.50881514  0.90282838     1.54400
O2316       O  0.57228892  0.51887192  0.89859706    -0.82500
O2317       O  0.62099698  0.46680948  0.90090799    -0.80800
O2318       O  0.54048847  0.48667756  0.87812504    -0.85000
O2319       O  0.54700786  0.46625921  0.93609461    -0.79900
O2320       O  0.61412177  0.52374418  0.86148820    -0.81600
O2321       O  0.57425812  0.42435261  0.88079752    -0.84400
C2322       C  0.56536070  0.47839701  0.95344313     0.96400
C2323       C  0.55111147  0.50898075  0.88622737     1.03800
O2324       O  0.58011736  0.47526568  0.88641985    -1.13400
O2325       O  0.57481894  0.45344539  0.82889674    -0.75800
O2326       O  0.53816040  0.44551761  0.84766522    -0.79300
O2327       O  0.58676843  0.49475718  0.94451419    -0.80000
C2328       C  0.55183812  0.44639554  0.82607593     0.95300
O2329       O  0.54265774  0.42463007  0.90406156    -0.77900
O2330       O  0.62258227  0.49432815  0.84669255    -0.83100
C2331       C  0.63552572  0.48802419  0.91175087     0.97900
C2332       C  0.62582093  0.51617873  0.84507180     1.03800
O2333       O  0.63050716  0.50538552  0.91039406    -0.78800
C2334       C  0.55408629  0.41357605  0.89549535     1.02100
Fe2335     Fe  0.44433658  0.55322682  0.86378394     1.65800
Fe2336     Fe  0.44635580  0.60395376  0.89515998     1.73200
Fe2337     Fe  0.49368164  0.60996825  0.85055134     1.54400
O2338       O  0.50617556  0.58401249  0.85249884    -0.82500
O2339       O  0.45012823  0.62969302  0.86386930    -0.80800
O2340       O  0.47519071  0.55114798  0.87295171    -0.85000
O2341       O  0.45104286  0.55721813  0.81823470    -0.79900
O2342       O  0.51071923  0.62464397  0.89104164    -0.81600
O2343       O  0.40981950  0.58080887  0.88099984    -0.84400
C2344       C  0.46215820  0.57545202  0.80053592     0.96400
C2345       C  0.49733057  0.56269397  0.86395194     1.03800
O2346       O  0.46123279  0.58904441  0.86969949    -1.13400
O2347       O  0.44190412  0.58040208  0.92910360    -0.75800
O2348       O  0.43574077  0.54534181  0.90784069    -0.79300
O2349       O  0.47799891  0.59706356  0.80929212    -0.80000
C2350       C  0.43673713  0.55802831  0.93036752     0.95300
O2351       O  0.41063596  0.55022222  0.85612429    -0.77900
O2352       O  0.48046582  0.62858692  0.91328738    -0.83100
C2353       C  0.46966412  0.64417296  0.84960056     0.97900
C2354       C  0.50288352  0.63334631  0.91141370     1.03800
O2355       O  0.48719726  0.63950306  0.84509371    -0.78800
C2356       C  0.39920113  0.56080388  0.86609824     1.02100
Fe2357     Fe  0.56910558  0.78114131  0.55733192     1.65800
Fe2358     Fe  0.51824711  0.73399460  0.52581724     1.73200
Fe2359     Fe  0.55841230  0.72234947  0.56619477     1.54400
O2360       O  0.59533858  0.74293882  0.55345444    -0.82500
O2361       O  0.49713648  0.70332115  0.55178824    -0.80800
O2362       O  0.60226652  0.78134884  0.55663936    -0.85000
O2363       O  0.56608843  0.77510273  0.60250853    -0.79900
O2364       O  0.55135721  0.70269976  0.52624915    -0.81600
O2365       O  0.50449417  0.75296802  0.55067998    -0.84400
C2366       C  0.56750421  0.75928459  0.61896122     0.96400
C2367       C  0.60995849  0.76606646  0.55383669     1.03800
O2368       O  0.54853275  0.74559369  0.54979758    -1.13400
O2369       O  0.52989370  0.76136653  0.99650869    -0.75800
O2370       O  0.57374181  0.78923791  0.51270902    -0.79300
O2371       O  0.56638736  0.73975143  0.60811991    -0.80000
C2372       C  0.55099088  0.78052484  0.99262916     0.95300
O2373       O  0.53954760  0.78767324  0.55923072    -0.77900
O2374       O  0.52805231  0.71328026  0.49881764    -0.83100
C2375       C  0.50132025  0.69107226  0.57110405     0.97900
C2376       C  0.53955105  0.70132285  0.50249842     1.03800
O2377       O  0.52294045  0.69764287  0.58078214    -0.78800
C2378       C  0.51600663  0.77525706  0.55948093     1.02100
Fe2379     Fe  0.75524031  0.87877195  0.53050449     1.65800
Fe2380     Fe  0.80921054  0.88556698  0.55641394     1.73200
Fe2381     Fe  0.76797170  0.83176749  0.52158708     1.54400
O2382       O  0.73058278  0.81567905  0.53231314    -0.82500
O2383       O  0.83046434  0.87739239  0.52789894    -0.80800
O2384       O  0.72219425  0.84614989  0.53198801    -0.85000
O2385       O  0.75682207  0.87472491  0.98550948    -0.79900
O2386       O  0.77334276  0.82066719  0.56375406    -0.81600
O2387       O  0.81917617  0.91695270  0.53133999    -0.84400
C2388       C  0.75869858  0.85871151  0.96953034     0.96400
C2389       C  0.71540048  0.82355736  0.53457462     1.03800
O2390       O  0.77749874  0.86516856  0.53604753    -1.13400
O2391       O  0.79188981  0.89562511  0.58924194    -0.75800
O2392       O  0.75236727  0.88157337  0.57571576    -0.79300
O2393       O  0.75927186  0.83983640  0.98016670    -0.80000
C2394       C  0.76953841  0.89000840  0.59504785     0.95300
O2395       O  0.78292693  0.91520673  0.52889607    -0.77900
O2396       O  0.80292525  0.85628119  0.58250600    -0.83100
C2397       C  0.82557797  0.85791238  0.51361661     0.97900
C2398       C  0.78884934  0.83303989  0.58427757     1.03800
O2399       O  0.80360264  0.84043618  0.50945074    -0.78800
C2400       C  0.80621447  0.92693829  0.52564429     1.02100
Fe2401     Fe  0.87656940  0.12534084  0.72588428     1.65800
Fe2402     Fe  0.92691900  0.12353440  0.69828366     1.73200
Fe2403     Fe  0.93474643  0.17412070  0.73732695     1.54400
O2404       O  0.91126854  0.18839471  0.72976288    -0.82500
O2405       O  0.95089187  0.12739449  0.73309113    -0.80800
O2406       O  0.87482436  0.15655167  0.71710709    -0.85000
O2407       O  0.88061197  0.13249602  0.77129137    -0.79900
O2408       O  0.95152634  0.18817618  0.69686593    -0.81600
O2409       O  0.90159649  0.08772836  0.71279780    -0.84400
C2410       C  0.89866913  0.14592597  0.78851853     0.96400
C2411       C  0.88886027  0.17935016  0.72171850     1.03800
O2412       O  0.91262750  0.14097814  0.72040435    -1.13400
O2413       O  0.90426042  0.11874550  0.66199035    -0.75800
O2414       O  0.86974301  0.11672207  0.68083584    -0.79300
O2415       O  0.91996108  0.16227380  0.77930258    -0.80000
C2416       C  0.88245020  0.11571361  0.65906575     0.95300
O2417       O  0.87196693  0.09131784  0.73574371    -0.77900
O2418       O  0.95428341  0.15606088  0.67906384    -0.83100
C2419       C  0.96538981  0.14704681  0.74737933     0.97900
C2420       C  0.96026099  0.17876971  0.67869537     1.03800
O2421       O  0.96212425  0.16563665  0.74767785    -0.78800
C2422       C  0.88116652  0.07831120  0.72693629     1.02100
Fe2423     Fe  0.78233253  0.22158692  0.69400653     1.65800
Fe2424     Fe  0.78074977  0.27149978  0.72214101     1.73200
Fe2425     Fe  0.83219475  0.27904551  0.68602736     1.54400
O2426       O  0.84538445  0.25512323  0.69630575    -0.82500
O2427       O  0.78421184  0.29405116  0.68597676    -0.80800
O2428       O  0.81255290  0.21881638  0.70659472    -0.85000
O2429       O  0.79267736  0.22512880  0.64951555    -0.79900
O2430       O  0.84540147  0.29604237  0.72679093    -0.81600
O2431       O  0.74463661  0.24451117  0.70937190    -0.84400
C2432       C  0.80646922  0.24349522  0.63312929     0.96400
C2433       C  0.83583113  0.23282436  0.70476658     1.03800
O2434       O  0.79856023  0.25725023  0.70094978    -1.13400
O2435       O  0.77719792  0.25020109  0.75899181    -0.75800
O2436       O  0.76992858  0.21428211  0.73840257    -0.79300
O2437       O  0.82179692  0.26469997  0.64350460    -0.80000
C2438       C  0.77126847  0.22749452  0.76095583     0.95300
O2439       O  0.75061536  0.22010346  0.67897161    -0.77900
O2440       O  0.81326009  0.30047533  0.74004289    -0.83100
C2441       C  0.80467766  0.30901579  0.67323361     0.97900
C2442       C  0.83611425  0.30668292  0.74197480     1.03800
O2443       O  0.82353650  0.30603705  0.67462735    -0.78800
C2444       C  0.73627338  0.22604300  0.69187552     1.02100
Fe2445     Fe  0.10742935  0.23576341  0.53573146     1.65800
Fe2446     Fe  0.05579585  0.18652312  0.56261408     1.73200
Fe2447     Fe  0.05116929  0.23032334  0.52393223     1.54400
O2448       O  0.07766577  0.26770290  0.52727551    -0.82500
O2449       O  0.03269671  0.16779688  0.52773801    -0.80800
O2450       O  0.10909967  0.26781516  0.54982946    -0.85000
O2451       O  0.10486585  0.24423428  0.99194580    -0.79900
O2452       O  0.03783762  0.23178455  0.56574245    -0.81600
O2453       O  0.08024210  0.17451698  0.54880103    -0.84400
C2454       C  0.08649091  0.23795642  0.97450149     0.96400
C2455       C  0.09817626  0.27905934  0.54090942     1.03800
O2456       O  0.07162036  0.21738557  0.54051016    -1.13400
O2457       O  0.07735467  0.20347666  0.59878965    -0.75800
O2458       O  0.11402358  0.23094739  0.57976785    -0.79300
O2459       O  0.06470172  0.23200163  0.98316228    -0.80000
C2460       C  0.10016868  0.21923342  0.60167403     0.95300
O2461       O  0.11001848  0.20544744  0.52281645    -0.77900
O2462       O  0.02977138  0.19438404  0.58100374    -0.83100
C2463       C  0.01740129  0.17344071  0.51670907     0.97900
C2464       C  0.02774003  0.21365605  0.58367168     1.03800
O2465       O  0.02097922  0.19536188  0.51715781    -0.78800
C2466       C  0.10001203  0.18376605  0.53335178     1.02100
Fe2467     Fe  0.20098239  0.42629440  0.55560105     1.65800
Fe2468     Fe  0.20187704  0.47680232  0.52751074     1.73200
Fe2469     Fe  0.15420826  0.43696602  0.57114609     1.54400
O2470       O  0.14138224  0.39863339  0.56979700    -0.82500
O2471       O  0.20010695  0.49841495  0.56117930    -0.80800
O2472       O  0.16901095  0.39650253  0.54098404    -0.85000
O2473       O  0.19074385  0.41937847  0.60088513    -0.79900
O2474       O  0.13724427  0.43520403  0.53091283    -0.81600
O2475       O  0.23775445  0.48646772  0.54119001    -0.84400
C2476       C  0.18259685  0.42905625  0.61979063     0.96400
C2477       C  0.14873127  0.38603372  0.55495450     1.03800
O2478       O  0.18600675  0.44698965  0.55147026    -1.13400
O2479       O  0.20511752  0.46023247  0.99007867    -0.75800
O2480       O  0.21328522  0.43059615  0.51172254    -0.79300
O2481       O  0.17055748  0.43955961  0.61158048    -0.80000
C2482       C  0.21363324  0.44547462  0.98911913     0.95300
O2483       O  0.23465096  0.45519406  0.56865219    -0.77900
O2484       O  0.16781195  0.47002985  0.51080471    -0.83100
C2485       C  0.18042889  0.49461135  0.57434109     0.97900
C2486       C  0.14523997  0.45267907  0.51197384     1.03800
O2487       O  0.16160690  0.47311852  0.57680107    -0.78800
C2488       C  0.24722627  0.47664216  0.55753929     1.02100
Fe2489     Fe  0.89336333  0.44961321  0.89452600     1.65800
Fe2490     Fe  0.84139336  0.40288137  0.86380971     1.73200
Fe2491     Fe  0.88207540  0.39104979  0.90001978     1.54400
O2492       O  0.92052886  0.41558187  0.90129688    -0.82500
O2493       O  0.81973328  0.37572897  0.89419030    -0.80800
O2494       O  0.92402019  0.44852641  0.87942096    -0.85000
O2495       O  0.89766422  0.44174077  0.93872172    -0.79900
O2496       O  0.88457828  0.38191845  0.85619952    -0.81600
O2497       O  0.83119906  0.42659583  0.88430923    -0.84400
C2498       C  0.88880470  0.42214428  0.95459528     0.96400
C2499       C  0.93389283  0.43675351  0.88998303     1.03800
O2500       O  0.87191423  0.41463427  0.88656535    -1.13400
O2501       O  0.85929105  0.42818351  0.83097743    -0.75800
O2502       O  0.89089215  0.46098818  0.85176621    -0.79300
O2503       O  0.87994886  0.40051248  0.94343712    -0.80000
C2504       C  0.87722046  0.45011935  0.82945302     0.95300
O2505       O  0.86477530  0.45477698  0.90877083    -0.77900
O2506       O  0.84920302  0.37891145  0.83954207    -0.83100
C2507       C  0.82373595  0.35847262  0.90168819     0.97900
C2508       C  0.86782742  0.37553348  0.83636919     1.03800
O2509       O  0.84560529  0.36150365  0.90217362    -0.78800
C2510       C  0.84240994  0.44583594  0.90051171     1.02100
Fe2511     Fe  0.08451074  0.54348700  0.86560623     1.65800
Fe2512     Fe  0.13424885  0.54435983  0.89760673     1.73200
Fe2513     Fe  0.09281648  0.49366884  0.85704367     1.54400
O2514       O  0.05436459  0.47977579  0.86273920    -0.82500
O2515       O  0.15558855  0.53973214  0.86577303    -0.80800
O2516       O  0.05187362  0.51263775  0.87447531    -0.85000
O2517       O  0.08337010  0.53603476  0.82039842    -0.79900
O2518       O  0.09365497  0.47961178  0.89847777    -0.81600
O2519       O  0.14641354  0.58003658  0.88168988    -0.84400
C2520       C  0.08852826  0.52239784  0.80407201     0.96400
C2521       C  0.04165956  0.48967334  0.87100085     1.03800
O2522       O  0.10392431  0.52723846  0.87334494    -1.13400
O2523       O  0.11525066  0.54993916  0.93143840    -0.75800
O2524       O  0.08409377  0.55249505  0.91001419    -0.79300
O2525       O  0.09214819  0.50545371  0.81429681    -0.80000
C2526       C  0.09660598  0.55317974  0.93267426     0.95300
O2527       O  0.11449832  0.57724552  0.85657133    -0.77900
O2528       O  0.12694670  0.51191145  0.91845781    -0.83100
C2529       C  0.15096476  0.52013424  0.85187052     0.97900
C2530       C  0.11033935  0.48921342  0.91838090     1.03800
O2531       O  0.12914944  0.50178101  0.84888990    -0.78800
C2532       C  0.13640265  0.58973774  0.86630512     1.02100
Fe2533     Fe  0.75701457  0.88426071  0.78160335     1.65800
Fe2534     Fe  0.76453030  0.94068442  0.76939474     1.73200
Fe2535     Fe  0.80763897  0.93299066  0.80666290     1.54400
O2536       O  0.79430639  0.90265926  0.83555741    -0.82500
O2537       O  0.79791192  0.96197394  0.74799437    -0.80800
O2538       O  0.75394906  0.88058644  0.82744712    -0.85000
O2539       O  0.78781045  0.87936942  0.78198663    -0.79900
O2540       O  0.79468402  0.94935596  0.83595534    -0.81600
O2541       O  0.75207556  0.91949505  0.73036872    -0.84400
C2542       C  0.81059865  0.89267131  0.77511939     0.96400
C2543       C  0.77241529  0.88786453  0.84483643     1.03800
O2544       O  0.77638306  0.91958483  0.78567826    -1.13400
O2545       O  0.72944929  0.92067137  0.78896132    -0.75800
O2546       O  0.72306891  0.88282692  0.78053067    -0.79300
O2547       O  0.82145610  0.91611805  0.77788652    -0.80000
C2548       C  0.71497464  0.89746685  0.78645077     0.95300
O2549       O  0.76018567  0.88856381  0.73596810    -0.77900
O2550       O  0.77737395  0.96507469  0.80610519    -0.83100
C2551       C  0.81899696  0.97450826  0.76005102     0.97900
C2552       C  0.78831605  0.96541333  0.83027544     1.03800
O2553       O  0.82516696  0.96617675  0.78230343    -0.78800
C2554       C  0.75573543  0.90256619  0.71954161     1.02100
Fe2555     Fe  0.56567913  0.78552944  0.80839776     1.65800
Fe2556     Fe  0.55866278  0.83569506  0.81815498     1.73200
Fe2557     Fe  0.51866488  0.78779622  0.77584613     1.54400
O2558       O  0.53238200  0.77032752  0.74796484    -0.82500
O2559       O  0.52450586  0.82423277  0.83624587    -0.80800
O2560       O  0.57090532  0.78323543  0.76323405    -0.85000
O2561       O  0.53307941  0.75093400  0.80890627    -0.79900
O2562       O  0.53768403  0.81774544  0.74958838    -0.81600
O2563       O  0.56845234  0.82639483  0.85837892    -0.84400
C2564       C  0.50973222  0.74312108  0.80937579     0.96400
C2565       C  0.55449745  0.77500168  0.74303411     1.03800
O2566       O  0.54743958  0.80277605  0.80155916    -1.13400
O2567       O  0.59422988  0.84961850  0.80135951    -0.75800
O2568       O  0.60044359  0.81770402  0.80900831    -0.79300
O2569       O  0.50046227  0.75650392  0.80180079    -0.80000
C2570       C  0.60847291  0.84043419  0.80316169     0.95300
O2571       O  0.56144264  0.78764696  0.85349445    -0.77900
O2572       O  0.54788969  0.84853303  0.78080902    -0.83100
C2573       C  0.50461138  0.81715874  0.82195084     0.97900
C2574       C  0.53998741  0.83849185  0.75550933     1.03800
O2575       O  0.50015935  0.80428790  0.79822288    -0.78800
C2576       C  0.56470945  0.80598552  0.86933298     1.02100
Fe2577     Fe  0.54321383  0.09369597  0.63957033     1.65800
Fe2578     Fe  0.60132287  0.10388589  0.65013613     1.73200
Fe2579     Fe  0.59117237  0.14528543  0.61331118     1.54400
O2580       O  0.56034524  0.13138069  0.58543688    -0.82500
O2581       O  0.62218426  0.13735880  0.67098884    -0.80800
O2582       O  0.53851053  0.09120037  0.59362981    -0.85000
O2583       O  0.53719977  0.12399267  0.64159310    -0.79900
O2584       O  0.60811484  0.13386536  0.58299790    -0.81600
O2585       O  0.58123702  0.09160452  0.69025251    -0.84400
C2586       C  0.55087566  0.14723712  0.64565204     0.96400
C2587       C  0.54529477  0.10962438  0.57641348     1.03800
O2588       O  0.57873634  0.11421062  0.63449915    -1.13400
O2589       O  0.58229451  0.06876511  0.63130049    -0.75800
O2590       O  0.54343500  0.06029746  0.63897180    -0.79300
O2591       O  0.57429121  0.15804799  0.64244143    -0.80000
C2592       C  0.55922625  0.05342245  0.63342722     0.95300
O2593       O  0.54773031  0.09599311  0.68517509    -0.77900
O2594       O  0.62454144  0.11668587  0.61210021    -0.83100
C2595       C  0.63350324  0.15852680  0.65923299     0.97900
C2596       C  0.62412708  0.12728314  0.58793390     1.03800
O2597       O  0.62448666  0.16393849  0.63709806    -0.78800
C2598       C  0.56299762  0.09315677  0.70130773     1.02100
Fe2599     Fe  0.45169379  0.90625002  0.61400835     1.65800
Fe2600     Fe  0.50100260  0.89693951  0.60375634     1.73200
Fe2601     Fe  0.44765770  0.85358159  0.63759847     1.54400
O2602       O  0.43281016  0.86773855  0.66879338    -0.82500
O2603       O  0.49335355  0.86308235  0.58686944    -0.80800
O2604       O  0.44879987  0.90781811  0.65974333    -0.85000
O2605       O  0.41535558  0.87657097  0.61134673    -0.79900
O2606       O  0.47612114  0.86230172  0.66623161    -0.81600
O2607       O  0.49140779  0.90522960  0.56265319    -0.84400
C2608       C  0.40535465  0.85336591  0.60731062     0.96400
C2609       C  0.43867158  0.88949785  0.67735961     1.03800
O2610       O  0.46707512  0.88556724  0.61819504    -1.13400
O2611       O  0.51573016  0.93294457  0.61861981    -0.75800
O2612       O  0.48417017  0.94002401  0.61605009    -0.79300
O2613       O  0.41749172  0.84212206  0.61008816    -0.80000
C2614       C  0.50705231  0.94748712  0.61939018     0.95300
O2615       O  0.45514152  0.90501461  0.56848535    -0.77900
O2616       O  0.51200192  0.88818295  0.64361903    -0.83100
C2617       C  0.47867978  0.84077782  0.59381505     0.97900
C2618       C  0.49961864  0.87358271  0.66476190     1.03800
O2619       O  0.46007922  0.83448342  0.61076363    -0.78800
C2620       C  0.47235269  0.90551461  0.55227198     1.02100
Fe2621     Fe  0.86921742  0.12038305  0.97651237     1.65800
Fe2622     Fe  0.82017055  0.06244406  0.98366524     1.73200
Fe2623     Fe  0.87389339  0.07292039  0.95036728     1.54400
O2624       O  0.89099775  0.10374012  0.92267642    -0.82500
O2625       O  0.83242270  0.03860714  0.50112677    -0.80800
O2626       O  0.87200502  0.12525400  0.93070532    -0.85000
O2627       O  0.90523022  0.12629047  0.97897710    -0.79900
O2628       O  0.84678218  0.05644645  0.91905890    -0.81600
O2629       O  0.83272673  0.08164915  0.52469428    -0.84400
C2630       C  0.91512490  0.11292894  0.98315824     0.96400
C2631       C  0.88337931  0.11803228  0.91331911     1.03800
O2632       O  0.85421249  0.08486192  0.97079041    -1.13400
O2633       O  0.80618760  0.08372027  0.96648540    -0.75800
O2634       O  0.83678218  0.12173404  0.97539382    -0.79300
O2635       O  0.90287762  0.08958040  0.98024913    -0.80000
C2636       C  0.81451729  0.10673860  0.96864503     0.95300
O2637       O  0.86993570  0.11618415  0.51974504    -0.77900
O2638       O  0.81083657  0.04208207  0.94352354    -0.83100
C2639       C  0.84112747  0.02813180  0.99203041     0.97900
C2640       C  0.82364235  0.04175750  0.92131132     1.03800
O2641       O  0.85885155  0.03953185  0.97367544    -0.78800
C2642       C  0.85238178  0.09998816  0.53569124     1.02100
Fe2643     Fe  0.77724930  0.21677052  0.94457654     1.65800
Fe2644     Fe  0.72000035  0.16734153  0.93554512     1.73200
Fe2645     Fe  0.72820499  0.21600034  0.97656433     1.54400
O2646       O  0.76106516  0.23085743  0.50314879    -0.82500
O2647       O  0.69885698  0.18023544  0.91617435    -0.80800
O2648       O  0.78565425  0.22122459  0.98932745    -0.85000
O2649       O  0.77969337  0.25137891  0.94183824    -0.79900
O2650       O  0.72027302  0.18283862  0.50381066    -0.81600
O2651       O  0.73934495  0.17503337  0.89474644    -0.84400
C2652       C  0.76409344  0.25902866  0.93975052     0.96400
C2653       C  0.77964298  0.22813940  0.50826333     1.03800
O2654       O  0.74191462  0.19995788  0.95216212    -1.13400
O2655       O  0.74057765  0.15283136  0.95341982    -0.75800
O2656       O  0.77897162  0.18426108  0.94567736    -0.79300
O2657       O  0.74168274  0.24618185  0.94844169    -0.80000
C2658       C  0.76391625  0.16165812  0.95162649     0.95300
O2659       O  0.77078289  0.21335271  0.89981999    -0.77900
O2660       O  0.69653859  0.15572062  0.97374087    -0.83100
C2661       C  0.68567145  0.18684236  0.93073439     0.97900
C2662       C  0.69804852  0.16551613  0.99929293     1.03800
O2663       O  0.69369887  0.19945501  0.95452572    -0.78800
C2664       C  0.75643623  0.19516344  0.88358243     1.02100
C2665       C  0.78502974  0.12005204  0.98706351    -0.02700
C2666       C  0.79810030  0.11702676  0.96320624     0.07000
C2667       C  0.79825603  0.12695670  0.93513749    -0.02800
C2668       C  0.78632174  0.14091470  0.93121893    -0.02800
C2669       C  0.77421532  0.14499646  0.95541575     0.07100
C2670       C  0.77307068  0.13405697  0.98320160    -0.03000
Br2671     Br  0.75670785  0.13969542  0.01644647    -0.01500
Br2672     Br  0.78448936  0.10580567  0.02528139    -0.01600
Br2673     Br  0.78657773  0.15447184  0.89261360    -0.01600
Br2674     Br  0.81544852  0.12189688  0.90232808    -0.01600
C2675       C  0.65026862  0.11856008  0.55130270    -0.02700
C2676       C  0.64443390  0.13524998  0.56569720     0.07000
C2677       C  0.65765439  0.16054315  0.55800654    -0.02800
C2678       C  0.67595560  0.16900922  0.53587983    -0.02800
C2679       C  0.68153249  0.15227192  0.52082078     0.07100
C2680       C  0.66855636  0.12697482  0.52858063    -0.03000
Br2681     Br  0.67634683  0.10405174  0.50895364    -0.01500
Br2682     Br  0.63305997  0.08425320  0.56233497    -0.01600
Br2683     Br  0.69249086  0.20404192  0.52612314    -0.01600
Br2684     Br  0.65161061  0.18454284  0.57837694    -0.01600
C2685       C  0.53781421  0.01093306  0.65536842    -0.02700
C2686       C  0.54995453  0.02637069  0.63081697     0.07000
C2687       C  0.55133429  0.01549331  0.60377508    -0.02800
C2688       C  0.53863794  0.98946026  0.60062255    -0.02800
C2689       C  0.52402423  0.97427528  0.62421478     0.07100
C2690       C  0.52437164  0.98503487  0.65190784    -0.03000
Br2691     Br  0.50640393  0.96413397  0.68508478    -0.01500
Br2692     Br  0.54091455  0.02526127  0.69423186    -0.01600
Br2693     Br  0.54050927  0.97449715  0.56373405    -0.01600
Br2694     Br  0.56967543  0.03606191  0.57074041    -0.01600
C2695       C  0.50980351  0.83208938  0.71580854    -0.02700
C2696       C  0.53059938  0.84896886  0.73286630     0.07000
C2697       C  0.54164913  0.87464771  0.72730751    -0.02800
C2698       C  0.53212182  0.88323219  0.70455344    -0.02800
C2699       C  0.51189528  0.86613861  0.68722485     0.07100
C2700       C  0.50157803  0.84052684  0.69225931    -0.03000
Br2701     Br  0.47656582  0.81599242  0.66609112    -0.01500
Br2702     Br  0.49027317  0.79700654  0.72533791    -0.01600
Br2703     Br  0.54634582  0.91817895  0.69752513    -0.01600
Br2704     Br  0.56963814  0.89809247  0.75050386    -0.01600
C2705       C  0.78175541  0.99676487  0.86061572    -0.02700
C2706       C  0.79643401  0.98611733  0.85201766     0.07000
C2707       C  0.81996695  0.99499806  0.86520834    -0.02800
C2708       C  0.82687195  0.01076086  0.88973097    -0.02800
C2709       C  0.81282216  0.02205589  0.89817276     0.07100
C2710       C  0.79024834  0.01514937  0.88329905    -0.03000
Br2711     Br  0.77136277  0.03109316  0.89349967    -0.01500
Br2712     Br  0.75055419  0.98685412  0.84116599    -0.01600
Br2713     Br  0.85483839  0.01459599  0.91292697    -0.01600
Br2714     Br  0.84476744  0.98835253  0.84781597    -0.01600
C2715       C  0.64660502  0.85460573  0.77183205    -0.02700
C2716       C  0.63553507  0.85672632  0.79823877     0.07000
C2717       C  0.65052876  0.87396068  0.82016435    -0.02800
C2718       C  0.67654419  0.88841427  0.81601784    -0.02800
C2719       C  0.68756800  0.88620737  0.78949275     0.07100
C2720       C  0.67222437  0.86996176  0.76696627    -0.03000
Br2721     Br  0.68612835  0.86923876  0.72872090    -0.01500
Br2722     Br  0.62701372  0.82976754  0.74276438    -0.01600
Br2723     Br  0.69715560  0.90986198  0.84742464    -0.01600
Br2724     Br  0.63557590  0.87619068  0.85688898    -0.01600
C2725       C  0.00103013  0.44887715  0.88128816    -0.02700
C2726       C  0.01401525  0.47497562  0.87698099     0.07000
C2727       C  0.00029130  0.48772322  0.88022189    -0.02800
C2728       C  0.97533907  0.47506901  0.88910801    -0.02800
C2729       C  0.96170568  0.44901107  0.88898269     0.07100
C2730       C  0.97491668  0.43592283  0.88633698    -0.03000
Br2731     Br  0.95779311  0.40037487  0.89050580    -0.01500
Br2732     Br  0.01834704  0.43023466  0.88083767    -0.01600
Br2733     Br  0.96077588  0.49418126  0.90474538    -0.01600
Br2734     Br  0.01345448  0.52237759  0.87020677    -0.01600
C2735       C  0.78593017  0.28908715  0.89900831    -0.02700
C2736       C  0.77313295  0.28378876  0.92630070     0.07000
C2737       C  0.77140712  0.30292102  0.94118765    -0.02800
C2738       C  0.78557646  0.32760595  0.93099619    -0.02800
C2739       C  0.80269899  0.33317601  0.90744033     0.07100
C2740       C  0.80090564  0.31360811  0.88986607    -0.03000
Br2741     Br  0.81768384  0.32015759  0.85207245    -0.01500
Br2742     Br  0.78206670  0.26278061  0.87315389    -0.01600
Br2743     Br  0.78010864  0.35295137  0.94775503    -0.01600
Br2744     Br  0.75062267  0.29567760  0.97590540    -0.01600
C2745       C  0.12752428  0.44727076  0.95961202    -0.02700
C2746       C  0.12840550  0.45574154  0.98887237     0.07000
C2747       C  0.11812309  0.47087481  0.99550858    -0.02800
C2748       C  0.11010611  0.48027728  0.97236074    -0.02800
C2749       C  0.11154052  0.47386847  0.94256143     0.07100
C2750       C  0.11906850  0.45630726  0.93635738    -0.03000
Br2751     Br  0.12109450  0.44722476  0.89581419    -0.01500
Br2752     Br  0.13982034  0.42482032  0.95149662    -0.01600
Br2753     Br  0.09929779  0.50370458  0.98142672    -0.01600
Br2754     Br  0.12084931  0.48175480  0.53942027    -0.01600
C2755       C  0.09635892  0.31847541  0.55034811    -0.02700
C2756       C  0.11039139  0.30631756  0.54616385     0.07000
C2757       C  0.13667086  0.32048875  0.54759974    -0.02800
C2758       C  0.14841395  0.34585985  0.55395005    -0.02800
C2759       C  0.13470334  0.35846904  0.55448753     0.07100
C2760       C  0.10848898  0.34455674  0.55313430    -0.03000
Br2761     Br  0.08895020  0.36089378  0.55406593    -0.01500
Br2762     Br  0.06057542  0.29972031  0.55392422    -0.01600
Br2763     Br  0.18346960  0.36275714  0.56401711    -0.01600
Br2764     Br  0.15777122  0.30644776  0.53860118    -0.01600
C2765       C  0.98597772  0.15646140  0.47629964    -0.02700
C2766       C  0.99358721  0.15394863  0.50493239     0.07000
C2767       C  0.97590843  0.13698505  0.02512309    -0.02800
C2768       C  0.95084019  0.12159136  0.01686027    -0.02800
C2769       C  0.94201715  0.12577260  0.98992453     0.07100
C2770       C  0.96128174  0.14118524  0.46750927    -0.03000
Br2771     Br  0.95109706  0.14522923  0.42832930    -0.01500
Br2772     Br  0.00888544  0.18167919  0.44944365    -0.01600
Br2773     Br  0.92798761  0.09639300  0.04373613    -0.01600
Br2774     Br  0.98682228  0.13266139  0.06367397    -0.01600
C2775       C  0.69992107  0.18359700  0.68549282    -0.02700
C2776       C  0.70907054  0.20943409  0.68691884     0.07000
C2777       C  0.69243213  0.21841854  0.68202715    -0.02800
C2778       C  0.66754026  0.20194665  0.67340157    -0.02800
C2779       C  0.65897288  0.17631691  0.67020216     0.07100
C2780       C  0.67547911  0.16735995  0.67634005    -0.03000
Br2781     Br  0.66599997  0.13298369  0.66956260    -0.01500
Br2782     Br  0.72039376  0.16956552  0.69738480    -0.01600
Br2783     Br  0.64530143  0.21464656  0.66605304    -0.01600
Br2784     Br  0.70354482  0.25316991  0.68675006    -0.01600
C2785       C  0.86633585  0.32610814  0.78495741    -0.02700
C2786       C  0.85197572  0.32787373  0.76182133     0.07000
C2787       C  0.85097589  0.34987825  0.75913432    -0.02800
C2788       C  0.85991017  0.36749523  0.78202573    -0.02800
C2789       C  0.86855448  0.36263102  0.80869608     0.07100
C2790       C  0.87399861  0.34307735  0.80899588    -0.03000
Br2791     Br  0.89063032  0.33850936  0.84244600    -0.01500
Br2792     Br  0.87598764  0.30116281  0.78353687    -0.01600
Br2793     Br  0.86112210  0.39870009  0.77612551    -0.01600
Br2794     Br  0.83818441  0.35654068  0.72362067    -0.01600
C2795       C  0.80919378  0.22658836  0.58283133    -0.02700
C2796       C  0.80235703  0.24093770  0.60059484     0.07000
C2797       C  0.79042100  0.25265644  0.58751232    -0.02800
C2798       C  0.78622133  0.25105827  0.55674648    -0.02800
C2799       C  0.79091938  0.23492884  0.53882191     0.07100
C2800       C  0.80326491  0.22324574  0.55209775    -0.03000
Br2801     Br  0.81178458  0.20209556  0.52934515    -0.01500
Br2802     Br  0.82601606  0.21100000  0.60110582    -0.01600
Br2803     Br  0.77505992  0.27243582  0.53997633    -0.01600
Br2804     Br  0.77702542  0.26868048  0.61241476    -0.01600
C2805       C  0.78745923  0.22366745  0.81014916    -0.02700
C2806       C  0.76706567  0.21640743  0.79110328     0.07000
C2807       C  0.74306169  0.19926435  0.80129430    -0.02800
C2808       C  0.73934332  0.19069985  0.83105336    -0.02800
C2809       C  0.75989197  0.19866634  0.85058395     0.07100
C2810       C  0.78411673  0.21398722  0.83907764    -0.03000
Br2811     Br  0.81321814  0.22206158  0.86269474    -0.01500
Br2812     Br  0.82008978  0.24810951  0.79704324    -0.01600
Br2813     Br  0.70581991  0.16955459  0.84494088    -0.01600
Br2814     Br  0.71507691  0.18920571  0.77511406    -0.01600
C2815       C  0.83999459  0.03940328  0.73090226    -0.02700
C2816       C  0.86622314  0.05105725  0.73272002     0.07000
C2817       C  0.87710866  0.03670129  0.74121590    -0.02800
C2818       C  0.86190622  0.01137264  0.74876890    -0.02800
C2819       C  0.83566324  0.00039320  0.74923373     0.07100
C2820       C  0.82496353  0.01496908  0.74074208    -0.03000
Br2821     Br  0.78970375  0.00313005  0.74542961    -0.01500
Br2822     Br  0.82389168  0.05619582  0.71325398    -0.01600
Br2823     Br  0.87727778  0.99180333  0.75792678    -0.01600
Br2824     Br  0.91276294  0.05168381  0.74367081    -0.01600
C2825       C  0.85699752  0.19011846  0.73746786    -0.02700
C2826       C  0.87763487  0.19535894  0.71940113     0.07000
C2827       C  0.88626051  0.21469249  0.69858779    -0.02800
C2828       C  0.87393504  0.22847957  0.69534002    -0.02800
C2829       C  0.85201556  0.22207237  0.71198765     0.07100
C2830       C  0.84424046  0.20329816  0.73386481    -0.03000
Br2831     Br  0.81640623  0.19542174  0.75997318    -0.01500
Br2832     Br  0.84588951  0.16442705  0.76730470    -0.01600
Br2833     Br  0.88709194  0.25532392  0.66704362    -0.01600
Br2834     Br  0.91345198  0.22058718  0.67247890    -0.01600
C2835       C  0.89474378  0.11811392  0.82960677    -0.02700
C2836       C  0.89548159  0.13998403  0.82051792     0.07000
C2837       C  0.89365196  0.15562708  0.84178107    -0.02800
C2838       C  0.89060653  0.14912299  0.87224864    -0.02800
C2839       C  0.88816370  0.12617258  0.88143438     0.07100
C2840       C  0.89018151  0.11067046  0.85947197    -0.03000
Br2841     Br  0.88554553  0.07826302  0.86836381    -0.01500
Br2842     Br  0.90131031  0.09877617  0.80086979    -0.01600
Br2843     Br  0.89140154  0.17273691  0.90086844    -0.01600
Br2844     Br  0.89523171  0.18587571  0.82888814    -0.01600
C2845       C  0.85881067  0.12327383  0.58387133    -0.02700
C2846       C  0.85595012  0.10217820  0.56852280     0.07000
C2847       C  0.85965319  0.08458898  0.58404969    -0.02800
C2848       C  0.86727022  0.08860894  0.61401978    -0.02800
C2849       C  0.87132313  0.11025390  0.62886313     0.07100
C2850       C  0.86590364  0.12700730  0.61414499    -0.03000
Br2851     Br  0.86870030  0.15534502  0.63518384    -0.01500
Br2852     Br  0.85349581  0.14731827  0.56317593    -0.01600
Br2853     Br  0.87163536  0.06409410  0.63519974    -0.01600
Br2854     Br  0.85633886  0.05579402  0.56391309    -0.01600
C2855       C  0.00392329  0.20532404  0.66146959    -0.02700
C2856       C  0.97825494  0.19446616  0.65592338     0.07000
C2857       C  0.96985669  0.19539928  0.62717528    -0.02800
C2858       C  0.98683559  0.20498564  0.60341480    -0.02800
C2859       C  0.01220708  0.21365187  0.60846715     0.07100
C2860       C  0.02091544  0.21533973  0.63776287    -0.03000
Br2861     Br  0.05608859  0.23022910  0.64496682    -0.01500
Br2862     Br  0.01562647  0.20427448  0.70088293    -0.01600
Br2863     Br  0.97520224  0.20408749  0.56348451    -0.01600
Br2864     Br  0.93485537  0.18129985  0.61994553    -0.01600
C2865       C  0.84162164  0.97166072  0.52396615    -0.02700
C2866       C  0.81777190  0.95288181  0.51451749     0.07000
C2867       C  0.80378022  0.95940305  0.49547676    -0.02800
C2868       C  0.81208933  0.98426831  0.48902192    -0.02800
C2869       C  0.83594010  0.00285199  0.49786771     0.07100
C2870       C  0.85108507  0.99636308  0.51436768    -0.03000
Br2871     Br  0.88427709  0.02156849  0.52487243    -0.01500
Br2872     Br  0.86077874  0.96456544  0.55190999    -0.01600
Br2873     Br  0.78655049  0.99177097  0.97080429    -0.01600
Br2874     Br  0.77344878  0.93468382  0.47639325    -0.01600
C2875       C  0.78383694  0.88588172  0.92816578    -0.02700
C2876       C  0.76253360  0.86405778  0.93724231     0.07000
C2877       C  0.74449368  0.84946991  0.91604009    -0.02800
C2878       C  0.74796989  0.85642997  0.88568112    -0.02800
C2879       C  0.76889779  0.87915519  0.87657923     0.07100
C2880       C  0.78657191  0.89400556  0.89856645    -0.03000
Br2881     Br  0.81382705  0.92686420  0.89021422    -0.01500
Br2882     Br  0.80972161  0.90492689  0.95670768    -0.01600
Br2883     Br  0.72392570  0.83401929  0.85727433    -0.01600
Br2884     Br  0.71428276  0.82082957  0.92906815    -0.01600
C2885       C  0.76684851  0.92006988  0.66725010    -0.02700
C2886       C  0.75554104  0.89932081  0.68659731     0.07000
C2887       C  0.74631547  0.87535770  0.67440123    -0.02800
C2888       C  0.75129561  0.87237578  0.64459641    -0.02800
C2889       C  0.76334237  0.89309506  0.62584973     0.07100
C2890       C  0.77023776  0.91676577  0.63687531    -0.03000
Br2891     Br  0.78484605  0.94467012  0.61008495    -0.01500
Br2892     Br  0.77911885  0.95339595  0.68154553    -0.01600
Br2893     Br  0.74341000  0.83998936  0.63027538    -0.01600
Br2894     Br  0.72533907  0.84627346  0.69760787    -0.01600
C2895       C  0.51501139  0.80694749  0.59233488    -0.02700
C2896       C  0.50269527  0.78822326  0.57091847     0.07000
C2897       C  0.47989586  0.78472438  0.55930252    -0.02800
C2898       C  0.47086921  0.80083353  0.56813428    -0.02800
C2899       C  0.48603753  0.82216712  0.58526645     0.07100
C2900       C  0.50855986  0.82525022  0.59668778    -0.03000
Br2901     Br  0.53159319  0.85456540  0.61830306    -0.01500
Br2902     Br  0.53879197  0.80602355  0.61892124    -0.01600
Br2903     Br  0.43832302  0.79419869  0.55624024    -0.01600
Br2904     Br  0.46121190  0.75867801  0.53109468    -0.01600
C2905       C  0.67753521  0.81099741  0.56591916    -0.02700
C2906       C  0.68882960  0.80619559  0.54136752     0.07000
C2907       C  0.67432119  0.78531761  0.52321045    -0.02800
C2908       C  0.64845525  0.77064585  0.52820894    -0.02800
C2909       C  0.63721549  0.77651047  0.55182745     0.07100
C2910       C  0.65227041  0.79534882  0.57198388    -0.03000
Br2911     Br  0.63845280  0.79874677  0.60910653    -0.01500
Br2912     Br  0.69581787  0.83957561  0.59099963    -0.01600
Br2913     Br  0.62468326  0.74445458  0.00166474    -0.01600
Br2914     Br  0.68633474  0.77477718  0.99305633    -0.01600
C2915       C  0.55870150  0.74860086  0.70336217    -0.02700
C2916       C  0.56133920  0.77143841  0.71248127     0.07000
C2917       C  0.57089722  0.79124743  0.69223552    -0.02800
C2918       C  0.57666805  0.78792860  0.66293288    -0.02800
C2919       C  0.56953754  0.76388856  0.65204239     0.07100
C2920       C  0.56256626  0.74463306  0.67322709    -0.03000
Br2921     Br  0.55978460  0.71331193  0.66249103    -0.01500
Br2922     Br  0.54984952  0.72286085  0.73239676    -0.01600
Br2923     Br  0.59730091  0.81719842  0.63958180    -0.01600
Br2924     Br  0.57537913  0.82305239  0.70378066    -0.01600
C2925       C  0.57801964  0.79335315  0.94736777    -0.02700
C2926       C  0.55717731  0.79133653  0.96273398     0.07000
C2927       C  0.54072208  0.79719454  0.94834044    -0.02800
C2928       C  0.54372039  0.80289014  0.91795842    -0.02800
C2929       C  0.56349387  0.80316685  0.90189949     0.07100
C2930       C  0.58096344  0.79894506  0.91682464    -0.03000
Br2931     Br  0.60854660  0.80021985  0.89521264    -0.01500
Br2932     Br  0.60173744  0.78697579  0.96747161    -0.01600
Br2933     Br  0.51912291  0.80800222  0.89850577    -0.01600
Br2934     Br  0.51415996  0.79768985  0.97054147    -0.01600
C2935       C  0.52022321  0.64374577  0.96266861    -0.02700
C2936       C  0.52016185  0.65123895  0.93320551     0.07000
C2937       C  0.53049251  0.67649825  0.92670377    -0.02800
C2938       C  0.53683703  0.69375898  0.94993333    -0.02800
C2939       C  0.53513843  0.68609602  0.97982680     0.07100
C2940       C  0.52852343  0.66129012  0.98593690    -0.03000
Br2941     Br  0.52258653  0.64640884  0.52434067    -0.01500
Br2942     Br  0.50699607  0.60911169  0.97115648    -0.01600
Br2943     Br  0.54590075  0.72738505  0.94044622    -0.01600
Br2944     Br  0.53407209  0.68699562  0.88577541    -0.01600
C2945       C  0.47546068  0.67328531  0.80827785    -0.02700
C2946       C  0.47325490  0.66817710  0.83896010     0.07000
C2947       C  0.47844493  0.68734673  0.85956117    -0.02800
C2948       C  0.48891584  0.71197071  0.84962950    -0.02800
C2949       C  0.49327384  0.71733836  0.81908440     0.07100
C2950       C  0.48503582  0.69779872  0.79833871    -0.03000
Br2951     Br  0.48744655  0.70474175  0.75639373    -0.01500
Br2952     Br  0.46577101  0.64659561  0.78009983    -0.01600
Br2953     Br  0.49863739  0.73863706  0.87783749    -0.01600
Br2954     Br  0.47299507  0.68027673  0.90155731    -0.01600
C2955       C  0.55124211  0.54983443  0.87778747    -0.02700
C2956       C  0.53819839  0.52370674  0.88113836     0.07000
C2957       C  0.51193321  0.51104055  0.87868471    -0.02800
C2958       C  0.49957802  0.52355339  0.86925302    -0.02800
C2959       C  0.51219880  0.54976610  0.86760178     0.07100
C2960       C  0.53827778  0.56284852  0.87214086    -0.03000
Br2961     Br  0.55653824  0.59857491  0.87154392    -0.01500
Br2962     Br  0.58704221  0.56865576  0.88105736    -0.01600
Br2963     Br  0.46533040  0.50341517  0.85641512    -0.01600
Br2964     Br  0.49175281  0.47707059  0.89177595    -0.01600
C2965       C  0.65772290  0.54312707  0.77231794    -0.02700
C2966       C  0.68216383  0.54908318  0.77975924     0.07000
C2967       C  0.68866581  0.54967753  0.80985865    -0.02800
C2968       C  0.67033547  0.54236360  0.83208867    -0.02800
C2969       C  0.64526164  0.53313415  0.82422990     0.07100
C2970       C  0.63920206  0.53490495  0.79454847    -0.03000
Br2971     Br  0.60527038  0.52447118  0.78427586    -0.01500
Br2972     Br  0.64912298  0.54367253  0.73126775    -0.01600
Br2973     Br  0.67936423  0.54402732  0.87334125    -0.01600
Br2974     Br  0.72230601  0.55887599  0.82049881    -0.01600
C2975       C  0.82081731  0.82945051  0.65309371    -0.02700
C2976       C  0.81681873  0.80514198  0.65204849     0.07000
C2977       C  0.79906860  0.78798957  0.63208392    -0.02800
C2978       C  0.78774232  0.79600663  0.61078660    -0.02800
C2979       C  0.79300456  0.82098922  0.61086273     0.07100
C2980       C  0.80728520  0.83649761  0.63472972    -0.03000
Br2981     Br  0.80847886  0.86759361  0.64373888    -0.01500
Br2982     Br  0.84600043  0.85427223  0.67850777    -0.01600
Br2983     Br  0.76556313  0.77253643  0.58185761    -0.01600
Br2984     Br  0.79175522  0.75409269  0.63252386    -0.01600
C2985       C  0.82142918  0.68365899  0.69765181    -0.02700
C2986       C  0.81140490  0.69694893  0.71225907     0.07000
C2987       C  0.78725902  0.68372415  0.72477077    -0.02800
C2988       C  0.77327105  0.65766429  0.72235227    -0.02800
C2989       C  0.78347468  0.64450631  0.70807486     0.07100
C2990       C  0.80759196  0.65771121  0.69558696    -0.03000
Br2991     Br  0.82209815  0.64047491  0.67504485    -0.01500
Br2992     Br  0.85439939  0.70058806  0.68031607    -0.01600
Br2993     Br  0.74091480  0.63988909  0.74079959    -0.01600
Br2994     Br  0.77416954  0.70073477  0.74827028    -0.01600
C2995       C  0.81743374  0.83905571  0.74728284    -0.02700
C2996       C  0.84219427  0.84585042  0.75462688     0.07000
C2997       C  0.85789621  0.86982642  0.76624169    -0.02800
C2998       C  0.84843193  0.88608938  0.77220784    -0.02800
C2999       C  0.82358469  0.87905434  0.76465698     0.07100
C3000       C  0.80913930  0.85619287  0.74992943    -0.03000
Br3001     Br  0.77859290  0.84879241  0.73015607    -0.01500
Br3002     Br  0.79409458  0.80640580  0.73225208    -0.01600
Br3003     Br  0.86962535  0.91763127  0.79079780    -0.01600
Br3004     Br  0.89187127  0.87978927  0.77562878    -0.01600
C3005       C  0.86676256  0.84740448  0.96324777    -0.02700
C3006       C  0.87842377  0.83973862  0.98415679     0.07000
C3007       C  0.87204953  0.83548961  0.51536517    -0.02800
C3008       C  0.85555767  0.84347691  0.52475238    -0.02800
C3009       C  0.84618074  0.85385385  0.50420547     0.07100
C3010       C  0.84870732  0.85344964  0.97271656    -0.03000
Br3011     Br  0.82958715  0.85959996  0.94380668    -0.01500
Br3012     Br  0.87494926  0.84885481  0.92168285    -0.01600
Br3013     Br  0.84435551  0.83812826  0.56546142    -0.01600
Br3014     Br  0.88524127  0.82189532  0.54396651    -0.01600
C3015       C  0.87855401  0.76077972  0.61398915    -0.02700
C3016       C  0.89875067  0.77854090  0.63079031     0.07000
C3017       C  0.92198365  0.79293083  0.61669726    -0.02800
C3018       C  0.92547384  0.78806299  0.58693975    -0.02800
C3019       C  0.90483800  0.77171783  0.56945752     0.07100
C3020       C  0.88142540  0.75766735  0.58343419    -0.03000
Br3021     Br  0.85308266  0.73349464  0.56110471    -0.01500
Br3022     Br  0.84597083  0.74299413  0.63186948    -0.01600
Br3023     Br  0.95873321  0.80388062  0.57084950    -0.01600
Br3024     Br  0.94843030  0.82127327  0.63645319    -0.01600
C3025       C  0.85196492  0.77644600  0.86844039    -0.02700
C3026       C  0.86802273  0.76899370  0.88055190     0.07000
C3027       C  0.87460302  0.75411099  0.86353032    -0.02800
C3028       C  0.86859221  0.75023827  0.83307952    -0.02800
C3029       C  0.85659258  0.76189839  0.81940030     0.07100
C3030       C  0.84675313  0.77362889  0.83773497    -0.03000
Br3031     Br  0.82762836  0.78759437  0.82151058    -0.01500
Br3032     Br  0.83636121  0.78943786  0.89432391    -0.01600
Br3033     Br  0.87598084  0.72818535  0.81058993    -0.01600
Br3034     Br  0.89156465  0.73882369  0.88226973    -0.01600
C3035       C  0.69522660  0.52218815  0.95585954    -0.02700
C3036       C  0.71000688  0.51348672  0.94242031     0.07000
C3037       C  0.69922865  0.49371589  0.92207396    -0.02800
C3038       C  0.67452766  0.48456417  0.91250158    -0.02800
C3039       C  0.65980441  0.49389917  0.92514851     0.07100
C3040       C  0.67010354  0.51197440  0.94804714    -0.03000
Br3041     Br  0.65038014  0.52355995  0.96893820    -0.01500
Br3042     Br  0.70957671  0.54861310  0.98493293    -0.01600
Br3043     Br  0.66257365  0.46160235  0.87949433    -0.01600
Br3044     Br  0.71868684  0.47997685  0.90627397    -0.01600
C3045       C  0.84309694  0.66211385  0.94595073    -0.02700
C3046       C  0.85240144  0.64764914  0.95861345     0.07000
C3047       C  0.87560858  0.65952073  0.97317106    -0.02800
C3048       C  0.88895451  0.68561951  0.97606121    -0.02800
C3049       C  0.87892731  0.70012005  0.96490109     0.07100
C3050       C  0.85596854  0.68797536  0.94928287    -0.03000
Br3051     Br  0.84126279  0.70598104  0.93148650    -0.01500
Br3052     Br  0.81262088  0.64657966  0.92295083    -0.01600
Br3053     Br  0.92022877  0.70084254  0.99705533    -0.01600
Br3054     Br  0.88836905  0.63997665  0.99113156    -0.01600
C3055       C  0.80366701  0.46961804  0.93900664    -0.02700
C3056       C  0.81207985  0.49241354  0.92401235     0.07000
C3057       C  0.82848990  0.49822545  0.89957227    -0.02800
C3058       C  0.83829048  0.48286828  0.89230984    -0.02800
C3059       C  0.83020695  0.46041000  0.90747474     0.07100
C3060       C  0.81223500  0.45335667  0.93007985    -0.03000
Br3061     Br  0.80102216  0.42235437  0.95025070    -0.01500
Br3062     Br  0.78282252  0.46160865  0.97387236    -0.01600
Br3063     Br  0.86421184  0.49367325  0.86261986    -0.01600
Br3064     Br  0.83824877  0.52747130  0.87575560    -0.01600
C3065       C  0.80745684  0.59173422  0.83980478    -0.02700
C3066       C  0.80074195  0.57151367  0.85882913     0.07000
C3067       C  0.78804674  0.54725680  0.84737646    -0.02800
C3068       C  0.78157773  0.54314616  0.81722641    -0.02800
C3069       C  0.78617419  0.56319335  0.79867590     0.07100
C3070       C  0.79979462  0.58764995  0.80983250    -0.03000
Br3071     Br  0.80668718  0.61561377  0.78511281    -0.01500
Br3072     Br  0.82729312  0.62489289  0.85486755    -0.01600
Br3073     Br  0.76687570  0.50989293  0.80133907    -0.01600
Br3074     Br  0.77758552  0.51932414  0.87343048    -0.01600
C3075       C  0.74736136  0.54243876  0.56687299    -0.02700
C3076       C  0.76475681  0.56301318  0.55025424     0.07000
C3077       C  0.77572109  0.58692867  0.56289285    -0.02800
C3078       C  0.77045954  0.58992424  0.59261476    -0.02800
C3079       C  0.75517797  0.56906034  0.61001072     0.07100
C3080       C  0.74312533  0.54536781  0.59690096    -0.03000
Br3081     Br  0.72215992  0.51654288  0.62048685    -0.01500
Br3082     Br  0.72877519  0.51017766  0.54844270    -0.01600
Br3083     Br  0.78361009  0.62253927  0.60941086    -0.01600
Br3084     Br  0.79921933  0.61544994  0.54052328    -0.01600
C3085       C  0.17987081  0.53418405  0.56641502    -0.02700
C3086       C  0.17817552  0.51565810  0.58594559     0.07000
C3087       C  0.16983390  0.51479135  0.61530786    -0.02800
C3088       C  0.16020668  0.53007415  0.62395062    -0.02800
C3089       C  0.15930796  0.54664611  0.60338071     0.07100
C3090       C  0.17048719  0.54975251  0.57523761    -0.03000
Br3091     Br  0.17108073  0.57394290  0.54807678    -0.01500
Br3092     Br  0.19278619  0.53682924  0.52666294    -0.01600
Br3093     Br  0.14785426  0.52792839  0.66393606    -0.01600
Br3094     Br  0.17160500  0.49254386  0.64364150    -0.01600
C3095       C  0.06778046  0.54271276  0.00899042    -0.02700
C3096       C  0.08439329  0.56540913  0.52398883     0.07000
C3097       C  0.10120130  0.58478013  0.50536680    -0.02800
C3098       C  0.10627036  0.58095428  0.97597705    -0.02800
C3099       C  0.08993146  0.55848227  0.96209859     0.07100
C3100       C  0.06982406  0.53988123  0.97812182    -0.03000
Br3101     Br  0.04590248  0.51014202  0.95792062    -0.01500
Br3102     Br  0.04226420  0.51677214  0.53605131    -0.01600
Br3103     Br  0.13326259  0.60673087  0.95329698    -0.01600
Br3104     Br  0.12575168  0.61611916  0.52147330    -0.01600
C3105       C  0.11357938  0.55179428  0.76448779    -0.02700
C3106       C  0.09332367  0.52868240  0.77217265     0.07000
C3107       C  0.07881782  0.51215610  0.74957780    -0.02800
C3108       C  0.08433041  0.51905372  0.71938068    -0.02800
C3109       C  0.10299877  0.54340985  0.71173916     0.07100
C3110       C  0.11769448  0.55970372  0.73481975    -0.03000
Br3111     Br  0.14292836  0.59363646  0.72749151    -0.01500
Br3112     Br  0.13697044  0.57226171  0.79462068    -0.01600
Br3113     Br  0.06765943  0.49424340  0.68899463    -0.01600
Br3114     Br  0.05103656  0.48045159  0.76010603    -0.01600
C3115       C  0.80821930  0.37138909  0.66294834    -0.02700
C3116       C  0.83115852  0.38392691  0.64778713     0.07000
C3117       C  0.84110304  0.37003002  0.63478240    -0.02800
C3118       C  0.82910584  0.34425187  0.63841659    -0.02800
C3119       C  0.80865777  0.33221821  0.65813641     0.07100
C3120       C  0.79695818  0.34558060  0.66826333    -0.03000
Br3121     Br  0.76640105  0.32941427  0.69068221    -0.01500
Br3122     Br  0.79366300  0.39000466  0.67913809    -0.01600
Br3123     Br  0.84093068  0.32556498  0.61579106    -0.01600
Br3124     Br  0.87206512  0.38622912  0.61288239    -0.01600
C3125       C  0.85263509  0.55191250  0.55530530    -0.02700
C3126       C  0.85594983  0.54794409  0.52517572     0.07000
C3127       C  0.86956969  0.53606946  0.51758045    -0.02800
C3128       C  0.87814791  0.52650374  0.54007740    -0.02800
C3129       C  0.87334102  0.52905214  0.57013481     0.07100
C3130       C  0.86158778  0.54273760  0.57776423    -0.03000
Br3131     Br  0.85532675  0.54654328  0.61899891    -0.01500
Br3132     Br  0.83338142  0.56750643  0.56568237    -0.01600
Br3133     Br  0.89452557  0.50798206  0.52985676    -0.01600
Br3134     Br  0.86789064  0.52811997  0.97841683    -0.01600
C3135       C  0.86177516  0.45593734  0.78034240    -0.02700
C3136       C  0.88201584  0.46259114  0.79994874     0.07000
C3137       C  0.90647091  0.47858598  0.78945502    -0.02800
C3138       C  0.91055738  0.48488276  0.75900154    -0.02800
C3139       C  0.89053016  0.47489746  0.73898615     0.07100
C3140       C  0.86608744  0.46137115  0.74988268    -0.03000
Br3141     Br  0.83836611  0.44950432  0.72278603    -0.01500
Br3142     Br  0.82788034  0.43994929  0.79491677    -0.01600
Br3143     Br  0.94343327  0.50744712  0.74446866    -0.01600
Br3144     Br  0.93468981  0.49170010  0.81584785    -0.01600
C3145       C  0.91079895  0.45021767  0.53380765    -0.02700
C3146       C  0.88795141  0.43765178  0.54912190     0.07000
C3147       C  0.86744997  0.41769996  0.53509570    -0.02800
C3148       C  0.86467931  0.41129260  0.00226289    -0.02800
C3149       C  0.88759572  0.42487374  0.98731611     0.07100
C3150       C  0.91242708  0.44417293  0.50378168    -0.03000
Br3151     Br  0.94064375  0.45926990  0.98424000    -0.01500
Br3152     Br  0.93946586  0.47653977  0.55336512    -0.01600
Br3153     Br  0.83628113  0.38551069  0.98208212    -0.01600
Br3154     Br  0.83662688  0.39854994  0.55669919    -0.01600
C3155       C  0.98519170  0.51796299  0.65650419    -0.02700
C3156       C  0.97003221  0.52492009  0.64057820     0.07000
C3157       C  0.98129662  0.54661304  0.62308157    -0.02800
C3158       C  0.00741294  0.56026853  0.62003980    -0.02800
C3159       C  0.02241373  0.55261956  0.63501280     0.07100
C3160       C  0.01118549  0.53228987  0.65452661    -0.03000
Br3161     Br  0.03150245  0.52491481  0.68013251    -0.01500
Br3162     Br  0.97070917  0.48872803  0.68121831    -0.01600
Br3163     Br  0.02238871  0.58861754  0.59409599    -0.01600
Br3164     Br  0.96100458  0.55658046  0.60119630    -0.01600
C3165       C  0.82307778  0.50638564  0.69846650    -0.02700
C3166       C  0.81607307  0.48955933  0.67426315     0.07000
C3167       C  0.79207593  0.48020578  0.66174592    -0.02800
C3168       C  0.77596846  0.48846761  0.67249340    -0.02800
C3169       C  0.78437403  0.50738915  0.69397497     0.07100
C3170       C  0.80773058  0.51590426  0.70737102    -0.03000
Br3171     Br  0.81936455  0.54166140  0.73727455    -0.01500
Br3172     Br  0.85388300  0.51707731  0.71976150    -0.01600
Br3173     Br  0.74286058  0.47491164  0.65684066    -0.01600
Br3174     Br  0.78196967  0.45852056  0.62757440    -0.01600
C3175       C  0.02229190  0.81104097  0.88577895    -0.02700
C3176       C  0.01748622  0.81298466  0.85569760     0.07000
C3177       C  0.99294215  0.80377368  0.84595264    -0.02800
C3178       C  0.97372840  0.79655653  0.86669475     0.08000
C3179       C  0.97849701  0.79577187  0.89718504     0.07100
C3180       C  0.00253085  0.80111465  0.90638448    -0.03000
Br3181     Br  0.00955159  0.79854695  0.94770147    -0.01500
Br3182     Br  0.05616164  0.82457020  0.89904515    -0.01600
Br3183     Br  0.94168575  0.79023811  0.85296064    -0.01600
Br3184     Br  0.98577347  0.80275272  0.80415495    -0.01600
C3185       C  0.98984170  0.86310935  0.76695343    -0.02700
C3186       C  0.00451262  0.85356850  0.75472110     0.07000
C3187       C  0.99430960  0.83539555  0.73213213    -0.02800
C3188       C  0.96896963  0.82414517  0.72529866    -0.02800
C3189       C  0.95387009  0.83289113  0.73828601     0.07100
C3190       C  0.96472217  0.85305306  0.75832029    -0.03000
Br3191     Br  0.94455990  0.86500319  0.77687474    -0.01500
Br3192     Br  0.00303728  0.88858224  0.79719852    -0.01600
Br3193     Br  0.95532572  0.79536851  0.69950759    -0.01600
Br3194     Br  0.01486975  0.82531719  0.71018076    -0.01600
C3195       C  0.12246870  0.78082330  0.81379543    -0.02700
C3196       C  0.14440799  0.78701415  0.79769077     0.07000
C3197       C  0.15412234  0.80741877  0.77821027    -0.02800
C3198       C  0.14318756  0.82247324  0.77624625    -0.02800
C3199       C  0.12165706  0.81676916  0.79289048     0.07100
C3200       C  0.11109415  0.79561287  0.81133558    -0.03000
Br3201     Br  0.08209290  0.78789390  0.83500205    -0.01500
Br3202     Br  0.10859423  0.75284651  0.84034846    -0.01600
Br3203     Br  0.15778417  0.85075784  0.75007931    -0.01600
Br3204     Br  0.18180045  0.81409222  0.75272679    -0.01600
C3205       C  0.14523097  0.65340394  0.85249175    -0.02700
C3206       C  0.17015226  0.66703785  0.84214812     0.07000
C3207       C  0.18493924  0.65546616  0.84238904    -0.02800
C3208       C  0.17435921  0.63020534  0.85042801    -0.02800
C3209       C  0.14945617  0.61684005  0.86033609     0.07100
C3210       C  0.13569973  0.62924370  0.86319774    -0.03000
Br3211     Br  0.10370332  0.61357342  0.88319090    -0.01500
Br3212     Br  0.12223475  0.66596057  0.84975813    -0.01600
Br3213     Br  0.19372526  0.61382359  0.84657933    -0.01600
Br3214     Br  0.21989909  0.67415436  0.83299759    -0.01600
C3215       C  0.15563745  0.66006088  0.70071116    -0.02700
C3216       C  0.13103255  0.65012443  0.69056772     0.07000
C3217       C  0.11558208  0.65847114  0.70319705    -0.02800
C3218       C  0.12510046  0.67696587  0.72562859    -0.02800
C3219       C  0.14919192  0.68528714  0.73706102     0.07100
C3220       C  0.16356184  0.67525175  0.72563983    -0.03000
Br3221     Br  0.19331925  0.67986702  0.74535513    -0.01500
Br3222     Br  0.17988096  0.65480387  0.67941146    -0.01600
Br3223     Br  0.10551024  0.69107254  0.73996314    -0.01600
Br3224     Br  0.08155019  0.64424620  0.69054221    -0.01600
C3225       C  0.16144162  0.68067254  0.57741580    -0.02700
C3226       C  0.17067626  0.66463939  0.58439829     0.07000
C3227       C  0.19638520  0.67319902  0.58018523    -0.02800
C3228       C  0.21262940  0.69791049  0.57068946    -0.02800
C3229       C  0.20297358  0.71364756  0.56373468     0.07100
C3230       C  0.17691670  0.70369254  0.56442636    -0.03000
Br3231     Br  0.16154723  0.72076200  0.54582528    -0.01500
Br3232     Br  0.12855831  0.67353993  0.58975428    -0.01600
Br3233     Br  0.24778203  0.70995557  0.56746231    -0.01600
Br3234     Br  0.20944775  0.65131851  0.58741476    -0.01600
C3235       C  0.36120263  0.83859213  0.62156763    -0.02700
C3236       C  0.37845568  0.83912294  0.60059169     0.07000
C3237       C  0.36992355  0.82689938  0.57308214    -0.02800
C3238       C  0.34457610  0.81622128  0.56548598    -0.02800
C3239       C  0.32757701  0.81731774  0.58568654     0.07100
C3240       C  0.33586482  0.82764426  0.61419691    -0.03000
Br3241     Br  0.31243131  0.82701495  0.64313413    -0.01500
Br3242     Br  0.37226268  0.85281099  0.66061786    -0.01600
Br3243     Br  0.33390034  0.80259438  0.52612720    -0.01600
Br3244     Br  0.39328965  0.82640191  0.54496777    -0.01600
C3245       C  0.23800331  0.81894242  0.67694289    -0.02700
C3246       C  0.23505000  0.80163606  0.65480169     0.07000
C3247       C  0.23262349  0.77881922  0.66324561    -0.02800
C3248       C  0.22972321  0.77185310  0.69336490    -0.02800
C3249       C  0.23088911  0.78854276  0.71594744     0.07100
C3250       C  0.23682490  0.81276469  0.70738112    -0.03000
Br3251     Br  0.24662719  0.83858205  0.73680110    -0.01500
Br3252     Br  0.24382023  0.85116801  0.66541976    -0.01600
Br3253     Br  0.22418418  0.73906861  0.70207934    -0.01600
Br3254     Br  0.23564193  0.75789094  0.63351872    -0.01600
C3255       C  0.19932171  0.79047219  0.95170802    -0.02700
C3256       C  0.19988485  0.77138917  0.96782733     0.07000
C3257       C  0.19443300  0.74921829  0.95338141    -0.02800
C3258       C  0.19055204  0.74686342  0.92250913    -0.02800
C3259       C  0.19160131  0.76654806  0.90576911     0.07100
C3260       C  0.19491225  0.78793429  0.92074608    -0.03000
Br3261     Br  0.19354180  0.81373661  0.89881214    -0.01500
Br3262     Br  0.20707741  0.82098969  0.97148958    -0.01600
Br3263     Br  0.18609822  0.71725241  0.90357947    -0.01600
Br3264     Br  0.19369220  0.72246951  0.97600885    -0.01600
C3265       C  0.01786292  0.86349534  0.97374943    -0.02700
C3266       C  0.99723542  0.85460058  0.49423976     0.07000
C3267       C  0.00110327  0.86607515  0.52226817    -0.02800
C3268       C  0.02561621  0.88164199  0.53281662    -0.02800
C3269       C  0.04634434  0.88542907  0.51533023     0.07100
C3270       C  0.04251507  0.87705960  0.98412369    -0.03000
Br3271     Br  0.06903728  0.88187897  0.95753341    -0.01500
Br3272     Br  0.01164336  0.85613041  0.93197125    -0.01600
Br3273     Br  0.03022978  0.89667823  0.57146460    -0.01600
Br3274     Br  0.97276610  0.86187787  0.54476820    -0.01600
C3275       C  0.18251042  0.84267095  0.54467268    -0.02700
C3276       C  0.20864711  0.85472961  0.55041291     0.07000
C3277       C  0.22199996  0.88106493  0.55039574    -0.02800
C3278       C  0.20930403  0.89470769  0.54859987    -0.02800
C3279       C  0.18336146  0.88252720  0.54354376     0.07100
C3280       C  0.17059601  0.85656353  0.53945656    -0.03000
Br3281     Br  0.13688505  0.83952391  0.52392430    -0.01500
Br3282     Br  0.16121006  0.80688554  0.54409203    -0.01600
Br3283     Br  0.22791778  0.93018650  0.55389693    -0.01600
Br3284     Br  0.25793415  0.89932937  0.55053530    -0.01600
C3285       C  0.14390850  0.89634175  0.92402649    -0.02700
C3286       C  0.13870572  0.91233901  0.94084141     0.07000
C3287       C  0.12764399  0.92484973  0.92736731    -0.02800
C3288       C  0.12130502  0.92094041  0.89720988    -0.02800
C3289       C  0.12463795  0.90337342  0.88087088     0.07100
C3290       C  0.13630713  0.89132139  0.89417343    -0.03000
Br3291     Br  0.13972717  0.86622530  0.87277383    -0.01500
Br3292     Br  0.16138135  0.88137478  0.94207170    -0.01600
Br3293     Br  0.10763808  0.93954825  0.87859475    -0.01600
Br3294     Br  0.11839599  0.94515235  0.95084079    -0.01600
C3295       C  0.08438912  0.88747106  0.65190129    -0.02700
C3296       C  0.09859075  0.88191881  0.63188677     0.07000
C3297       C  0.10941233  0.86782613  0.64200639    -0.02800
C3298       C  0.10662992  0.86024529  0.67191518    -0.02800
C3299       C  0.09457846  0.86799391  0.69212388     0.07100
C3300       C  0.08298386  0.88107987  0.68198419    -0.03000
Br3301     Br  0.06569984  0.89099182  0.70962662    -0.01500
Br3302     Br  0.06612677  0.90328263  0.63849919    -0.01600
Br3303     Br  0.11855054  0.83864730  0.68523426    -0.01600
Br3304     Br  0.12987438  0.86036761  0.61633186    -0.01600
C3305       C  0.51983936  0.16033197  0.63345891    -0.02700
C3306       C  0.53858599  0.16194147  0.65256690     0.07000
C3307       C  0.54445038  0.17658270  0.67853167    -0.02800
C3308       C  0.53039484  0.18799625  0.68640471    -0.02800
C3309       C  0.50972156  0.18390922  0.66896556     0.07100
C3310       C  0.50514011  0.17075513  0.64188188    -0.03000
Br3311     Br  0.47825822  0.16633227  0.61628674    -0.01500
Br3312     Br  0.51440874  0.14411876  0.59525629    -0.01600
Br3313     Br  0.53823523  0.20723832  0.72257796    -0.01600
Br3314     Br  0.57016817  0.17909951  0.70476898    -0.01600
C3315       C  0.18228160  0.97748891  0.64158288    -0.02700
C3316       C  0.18632068  0.98482498  0.61155541     0.07000
C3317       C  0.20070770  0.01016120  0.60442155    -0.02800
C3318       C  0.20931384  0.02814279  0.62715918    -0.02800
C3319       C  0.20379716  0.02084935  0.65706743     0.07100
C3320       C  0.19098678  0.99547676  0.66433525    -0.03000
Br3321     Br  0.18327820  0.98543201  0.70533394    -0.01500
Br3322     Br  0.16317140  0.94279725  0.65127586    -0.01600
Br3323     Br  0.22641783  0.06291185  0.61740986    -0.01600
Br3324     Br  0.20652981  0.02041570  0.56339084    -0.01600
C3325       C  0.34186856  0.16278992  0.70189319    -0.02700
C3326       C  0.35508591  0.14975103  0.70344790     0.07000
C3327       C  0.34161759  0.12387921  0.70797925    -0.02800
C3328       C  0.31545708  0.11151089  0.71163436    -0.02800
C3329       C  0.30266600  0.12518627  0.71360134     0.07100
C3330       C  0.31663573  0.15126464  0.70971263    -0.03000
Br3331     Br  0.30312155  0.17286485  0.71812769    -0.01500
Br3332     Br  0.35750662  0.19624214  0.68642172    -0.01600
Br3333     Br  0.29786875  0.07574720  0.71334471    -0.01600
Br3334     Br  0.35869766  0.10505550  0.70998795    -0.01600
C3335       C  0.12706962  0.99285077  0.75036395    -0.02700
C3336       C  0.15119883  0.00781180  0.76229239     0.07000
C3337       C  0.15946737  0.99801382  0.78515961    -0.02800
C3338       C  0.14557532  0.97288140  0.79265831    -0.02800
C3339       C  0.12260988  0.95752185  0.77882999     0.07100
C3340       C  0.11256032  0.96795348  0.75942468    -0.03000
Br3341     Br  0.07935356  0.94790393  0.74440593    -0.01500
Br3342     Br  0.11440010  0.00505827  0.71950726    -0.01600
Br3343     Br  0.15830979  0.95935428  0.82188454    -0.01600
Br3344     Br  0.19012038  0.01855035  0.80639973    -0.01600
C3345       C  0.48372244  0.86040816  0.85458396    -0.02700
C3346       C  0.45749827  0.84588375  0.85419958     0.07000
C3347       C  0.44650092  0.82123286  0.84345550    -0.02800
C3348       C  0.46160706  0.81134245  0.83360641    -0.02800
C3349       C  0.48775119  0.82644028  0.83253251     0.07100
C3350       C  0.49850920  0.85133665  0.84225888    -0.03000
Br3351     Br  0.53356806  0.87446771  0.83649831    -0.01500
Br3352     Br  0.50018138  0.89273892  0.87344382    -0.01600
Br3353     Br  0.44642624  0.77693599  0.82256506    -0.01600
Br3354     Br  0.41084254  0.80127652  0.84045677    -0.01600
C3355       C  0.43010268  0.88117413  0.76136783    -0.02700
C3356       C  0.42394897  0.89929499  0.76943095     0.07000
C3357       C  0.42184349  0.91400577  0.74722897    -0.02800
C3358       C  0.42623390  0.91075674  0.71703200    -0.02800
C3359       C  0.43350906  0.89314975  0.70899889     0.07100
C3360       C  0.43572112  0.87863992  0.73176359    -0.03000
Br3361     Br  0.44792501  0.85596695  0.72404378    -0.01500
Br3362     Br  0.42933584  0.85843281  0.79085547    -0.01600
Br3363     Br  0.42103306  0.92982634  0.68707084    -0.01600
Br3364     Br  0.41315305  0.93868990  0.75840346    -0.01600
C3365       C  0.45706084  0.92199243  0.97606240    -0.02700
C3366       C  0.45211277  0.90018495  0.96076595     0.07000
C3367       C  0.45578969  0.88222001  0.97517826    -0.02800
C3368       C  0.46945201  0.88613033  0.50258472    -0.02800
C3369       C  0.46942455  0.90523404  0.51966761     0.07100
C3370       C  0.46455527  0.92266769  0.50572601    -0.03000
Br3371     Br  0.46524386  0.94936323  0.52846667    -0.01500
Br3372     Br  0.45358789  0.94740883  0.95593936    -0.01600
Br3373     Br  0.47382342  0.86067458  0.52103460    -0.01600
Br3374     Br  0.44972933  0.85252988  0.95417236    -0.01600
C3375       C  0.34869588  0.88023242  0.96452367    -0.02700
C3376       C  0.34167448  0.87166249  0.93519612     0.07000
C3377       C  0.31657480  0.85524640  0.92848282    -0.02800
C3378       C  0.29895964  0.84535814  0.95149630    -0.02800
C3379       C  0.30625061  0.85255456  0.98119998     0.07100
C3380       C  0.33094730  0.87081975  0.98756329    -0.03000
Br3381     Br  0.34740134  0.87360304  0.53653991    -0.01500
Br3382     Br  0.38295223  0.90362633  0.97319499    -0.01600
Br3383     Br  0.26521588  0.82064065  0.94245111    -0.01600
Br3384     Br  0.30669131  0.84484536  0.88791977    -0.01600
C3385       C  0.29187532  0.77972284  0.84879814    -0.02700
C3386       C  0.28307196  0.78278561  0.82125165     0.07000
C3387       C  0.30005272  0.79942938  0.80017355    -0.02800
C3388       C  0.32507079  0.81488316  0.80788901    -0.02800
C3389       C  0.33315995  0.81413597  0.83686374     0.07100
C3390       C  0.31690109  0.79552140  0.85676475    -0.03000
Br3391     Br  0.32777982  0.79353511  0.89630759    -0.01500
Br3392     Br  0.26908116  0.75556622  0.87662798    -0.01600
Br3393     Br  0.34823196  0.83788918  0.77915514    -0.01600
Br3394     Br  0.28908257  0.80191987  0.76091840    -0.01600
C3395       C  0.62183453  0.14270341  0.89999964    -0.02700
C3396       C  0.60954886  0.15676264  0.90140522     0.07000
C3397       C  0.62277667  0.18142734  0.91213660    -0.02800
C3398       C  0.64777561  0.19164633  0.92156147    -0.02800
C3399       C  0.65953557  0.17714557  0.92094849     0.07100
C3400       C  0.64592073  0.15228544  0.91125374    -0.03000
Br3401     Br  0.65877693  0.12975418  0.91622889    -0.01500
Br3402     Br  0.60670639  0.11033147  0.88117314    -0.01600
Br3403     Br  0.66571668  0.22546034  0.93538483    -0.01600
Br3404     Br  0.60680258  0.20123030  0.91500384    -0.01600
C3405       C  0.45762545  0.98808741  0.85115089    -0.02700
C3406       C  0.43604828  0.97326229  0.86765978     0.07000
C3407       C  0.42728571  0.98428675  0.88822581    -0.02800
C3408       C  0.44106886  0.01011458  0.89346399    -0.02800
C3409       C  0.46425107  0.02475063  0.87894585     0.07100
C3410       C  0.47259880  0.01313871  0.85815564    -0.03000
Br3411     Br  0.50550373  0.02962453  0.84074067    -0.01500
Br3412     Br  0.46674468  0.97364651  0.81858179    -0.01600
Br3413     Br  0.42944309  0.02435454  0.92336704    -0.01600
Br3414     Br  0.39719451  0.96376035  0.91018647    -0.01600
C3415       C  0.50411173  0.08359171  0.50668991    -0.02700
C3416       C  0.51990963  0.09866540  0.98587333     0.07000
C3417       C  0.54172177  0.11974984  0.99526881    -0.02800
C3418       C  0.54963119  0.12484397  0.52342269    -0.02800
C3419       C  0.53557863  0.10651873  0.54517228     0.07100
C3420       C  0.51236634  0.08597209  0.53647814    -0.03000
Br3421     Br  0.49146110  0.06057055  0.56437499    -0.01500
Br3422     Br  0.47340627  0.05532952  0.49405179    -0.01600
Br3423     Br  0.58337260  0.15118001  0.53033055    -0.01600
Br3424     Br  0.56222453  0.14462359  0.96636273    -0.01600
C3425       C  0.57515092  0.11167033  0.78312100    -0.02700
C3426       C  0.55092261  0.09900689  0.79493251     0.07000
C3427       C  0.53117424  0.08213376  0.77679105    -0.02800
C3428       C  0.53551643  0.07872059  0.74676175    -0.02800
C3429       C  0.55957535  0.09249663  0.73429998     0.07100
C3430       C  0.57960505  0.10813023  0.75317244    -0.03000
Br3431     Br  0.61319416  0.12611335  0.73833290    -0.01500
Br3432     Br  0.60209842  0.13524793  0.80768848    -0.01600
Br3433     Br  0.50824696  0.05479693  0.72289002    -0.01600
Br3434     Br  0.49756702  0.06555882  0.79185789    -0.01600
C3435       C  0.47849012  0.12666875  0.78454560    -0.02700
C3436       C  0.46970193  0.12475644  0.81404983     0.07000
C3437       C  0.45027572  0.12991106  0.81997274    -0.02800
C3438       C  0.44181998  0.13943212  0.79718029    -0.02800
C3439       C  0.45148415  0.14212726  0.76821165     0.07100
C3440       C  0.46835345  0.13394290  0.76160121    -0.03000
Br3441     Br  0.47914211  0.13457790  0.72111837    -0.01500
Br3442     Br  0.50669670  0.12273721  0.77525733    -0.01600
Br3443     Br  0.41901972  0.15119921  0.80600631    -0.01600
Br3444     Br  0.43781934  0.12762100  0.85992873    -0.01600
C3445       C  0.49220918  0.20863104  0.90405040    -0.02700
C3446       C  0.49112727  0.21349554  0.93449835     0.07000
C3447       C  0.49986387  0.20289179  0.95567413    -0.02800
C3448       C  0.50890854  0.18707823  0.94645752    -0.02800
C3449       C  0.50918254  0.18166248  0.91607834     0.07100
C3450       C  0.50154157  0.19315363  0.89485348    -0.03000
Br3451     Br  0.50213388  0.18641155  0.85301479    -0.01500
Br3452     Br  0.47929942  0.22182397  0.87485468    -0.01600
Br3453     Br  0.52039356  0.17224106  0.97532617    -0.01600
Br3454     Br  0.49681133  0.20756795  0.99746922    -0.01600
C3455       C  0.53416510  0.35073234  0.93063149    -0.02700
C3456       C  0.51027807  0.33632227  0.91766566     0.07000
C3457       C  0.50319075  0.34695061  0.89437743    -0.02800
C3458       C  0.51910305  0.37146333  0.88538534    -0.02800
C3459       C  0.54147507  0.38645831  0.90054627     0.07100
C3460       C  0.54947080  0.37582687  0.92235520    -0.03000
Br3461     Br  0.58077197  0.39614815  0.94193492    -0.01500
Br3462     Br  0.54538755  0.33740587  0.96178866    -0.01600
Br3463     Br  0.51006604  0.38478472  0.85198002    -0.01600
Br3464     Br  0.47107629  0.32919255  0.87507097    -0.01600
C3465       C  0.45319937  0.25572810  0.84173398    -0.02700
C3466       C  0.43037918  0.24004201  0.85614405     0.07000
C3467       C  0.41121468  0.22011060  0.84025502    -0.02800
C3468       C  0.41455166  0.21653936  0.81001510    -0.02800
C3469       C  0.43749045  0.23199491  0.79603846     0.07100
C3470       C  0.45657948  0.25188181  0.81171036    -0.03000
Br3471     Br  0.48748146  0.27402633  0.79187351    -0.01500
Br3472     Br  0.48146934  0.28013337  0.86380733    -0.01600
Br3473     Br  0.38797782  0.18988144  0.78803248    -0.01600
Br3474     Br  0.38087584  0.19670620  0.85993172    -0.01600
C3475       C  0.46096453  0.22297000  0.56530734    -0.02700
C3476       C  0.44042317  0.21599758  0.54612144     0.07000
C3477       C  0.41592657  0.20195485  0.55743911    -0.02800
C3478       C  0.41212725  0.19552490  0.58769978    -0.02800
C3479       C  0.43259429  0.20262043  0.60644988     0.07100
C3480       C  0.45693932  0.21637549  0.59538366    -0.03000
Br3481     Br  0.48490380  0.22772138  0.62209203    -0.01500
Br3482     Br  0.49495638  0.24155233  0.55113062    -0.01600
Br3483     Br  0.37896120  0.17753497  0.60393255    -0.01600
Br3484     Br  0.38725185  0.19269255  0.53262800    -0.01600
C3485       C  0.17642177  0.03782721  0.47408551    -0.02700
C3486       C  0.17187278  0.05632007  0.98762385     0.07000
C3487       C  0.15451860  0.04637444  0.01106988    -0.02800
C3488       C  0.14552133  0.02167049  0.02045756    -0.02800
C3489       C  0.15085861  0.00325831  0.50715037     0.07100
C3490       C  0.16801108  0.01343872  0.48331912    -0.03000
Br3491     Br  0.18100248  0.99470257  0.46314244    -0.01500
Br3492     Br  0.19892425  0.05088406  0.44065057    -0.01600
Br3493     Br  0.12444367  0.00989973  0.05520599    -0.01600
Br3494     Br  0.14460313  0.06722882  0.03183760    -0.01600
C3495       C  0.32074024  0.20913537  0.99370896    -0.02700
C3496       C  0.30466187  0.20237560  0.96909516     0.07000
C3497       C  0.31469463  0.20948143  0.94036766    -0.02800
C3498       C  0.34056671  0.22066682  0.93591995    -0.02800
C3499       C  0.35643039  0.22436796  0.96024151     0.07100
C3500       C  0.34654124  0.21961185  0.98930629    -0.03000
Br3501     Br  0.36842339  0.22820168  0.02306546    -0.01500
Br3502     Br  0.30741798  0.20492259  0.03333830    -0.01600
Br3503     Br  0.35204090  0.18279751  0.41552459    -0.01600
Br3504     Br  0.29269393  0.16762636  0.41224089    -0.01600
C3505       C  0.10685552  0.15331331  0.00940106    -0.02700
C3506       C  0.11370925  0.17013301  0.52958804     0.07000
C3507       C  0.13615174  0.17845924  0.54515286    -0.02800
C3508       C  0.15228009  0.16949722  0.53773583    -0.02800
C3509       C  0.14701941  0.15356041  0.51303538     0.07100
C3510       C  0.12346142  0.14492268  0.00073094    -0.03000
Br3511     Br  0.11207825  0.11856171  0.97173320    -0.01500
Br3512     Br  0.07405412  0.13877147  0.99250669    -0.01600
Br3513     Br  0.18112685  0.17868052  0.56224832    -0.01600
Br3514     Br  0.14498176  0.20242105  0.57674344    -0.01600
C3515       C  0.24734672  0.14797323  0.59065818    -0.02700
C3516       C  0.22726174  0.14077190  0.57123818     0.07000
C3517       C  0.20278442  0.12628564  0.58162646    -0.02800
C3518       C  0.19820182  0.11819126  0.61120147    -0.02800
C3519       C  0.21830137  0.12423613  0.63059166     0.07100
C3520       C  0.24297500  0.13961501  0.62030352    -0.03000
Br3521     Br  0.27115895  0.14802651  0.64553114    -0.01500
Br3522     Br  0.28072346  0.16900583  0.57628745    -0.01600
Br3523     Br  0.16415813  0.09928681  0.62481815    -0.01600
Br3524     Br  0.17540174  0.11679172  0.55477999    -0.01600
C3525       C  0.20379729  0.09424467  0.86400262    -0.02700
C3526       C  0.22435410  0.11171042  0.88072916     0.07000
C3527       C  0.24843557  0.12289325  0.86772350    -0.02800
C3528       C  0.25122108  0.11897133  0.83736914    -0.02800
C3529       C  0.23027015  0.10321951  0.82034464     0.07100
C3530       C  0.20672761  0.09044380  0.83387182    -0.03000
Br3531     Br  0.17794388  0.06867748  0.81067255    -0.01500
Br3532     Br  0.17170507  0.07381932  0.88246215    -0.01600
Br3533     Br  0.28367134  0.13487727  0.81893634    -0.01600
Br3534     Br  0.27796331  0.14316388  0.89070995    -0.01600
C3535       C  0.46080343  0.63477046  0.61849628    -0.02700
C3536       C  0.44801708  0.61690763  0.59627490     0.07000
C3537       C  0.45079439  0.62410198  0.56628398    -0.02800
C3538       C  0.46638161  0.64898601  0.55836764    -0.02800
C3539       C  0.48055293  0.66669931  0.58043902     0.07100
C3540       C  0.47718628  0.65955744  0.61062080    -0.03000
Br3541     Br  0.49500093  0.68360343  0.64126574    -0.01500
Br3542     Br  0.45713810  0.62477403  0.65964953    -0.01600
Br3543     Br  0.46962042  0.65783164  0.51668546    -0.01600
Br3544     Br  0.43525796  0.59950189  0.53567329    -0.01600
C3545       C  0.28578183  0.50953212  0.58230549    -0.02700
C3546       C  0.27435956  0.48973878  0.56215839     0.07000
C3547       C  0.28868001  0.48127203  0.54713748    -0.02800
C3548       C  0.31411393  0.49151112  0.55344121    -0.02800
C3549       C  0.32559105  0.51031479  0.57536431     0.07100
C3550       C  0.31137062  0.52011150  0.58869291    -0.03000
Br3551     Br  0.32546613  0.54626264  0.61805549    -0.01500
Br3552     Br  0.26558236  0.52042820  0.60312094    -0.01600
Br3553     Br  0.33260365  0.47903636  0.53164333    -0.01600
Br3554     Br  0.27308364  0.45477898  0.51837112    -0.01600
C3555       C  0.44412807  0.53552822  0.97134994    -0.02700
C3556       C  0.43056983  0.54615071  0.95940466     0.07000
C3557       C  0.41160831  0.54671221  0.97597017    -0.02800
C3558       C  0.40966757  0.53848585  0.50559277    -0.02800
C3559       C  0.42423933  0.52943573  0.51853569     0.07100
C3560       C  0.44318468  0.52875964  0.50203194    -0.03000
Br3561     Br  0.46256996  0.51574904  0.51987919    -0.01500
Br3562     Br  0.47003119  0.53457260  0.94843041    -0.01600
Br3563     Br  0.38399968  0.54006621  0.52809119    -0.01600
Br3564     Br  0.39146867  0.55932242  0.95879709    -0.01600
C3565       C  0.42321799  0.55451433  0.73034367    -0.02700
C3566       C  0.44158133  0.56242643  0.70774321     0.07000
C3567       C  0.46701407  0.57536171  0.71589192    -0.02800
C3568       C  0.47386520  0.57980665  0.74617447    -0.02800
C3569       C  0.45544384  0.57129244  0.76856074     0.07100
C3570       C  0.43016017  0.55903293  0.76034023    -0.03000
Br3571     Br  0.40431577  0.54936145  0.78980270    -0.01500
Br3572     Br  0.38796442  0.53669442  0.72142728    -0.01600
Br3573     Br  0.50861216  0.59710014  0.75686309    -0.01600
Br3574     Br  0.49285002  0.58824833  0.68595840    -0.01600
C3575       C  0.62915524  0.48243383  0.64048345    -0.02700
C3576       C  0.61515628  0.45875164  0.65307005     0.07000
C3577       C  0.62697945  0.44990684  0.67212817    -0.02800
C3578       C  0.65174803  0.46586202  0.68151998    -0.02800
C3579       C  0.66449446  0.49105437  0.67246336     0.07100
C3580       C  0.65351967  0.49856392  0.65013773    -0.03000
Br3581     Br  0.67159490  0.53076924  0.63159068    -0.01500
Br3582     Br  0.61488558  0.49264283  0.60920010    -0.01600
Br3583     Br  0.66736499  0.45275905  0.70712367    -0.01600
Br3584     Br  0.60895398  0.41630955  0.68620119    -0.01600
C3585       C  0.54663357  0.42382986  0.77825639    -0.02700
C3586       C  0.54049636  0.43863055  0.79636704     0.07000
C3587       C  0.52363914  0.44593270  0.78568448    -0.02800
C3588       C  0.51437148  0.43966921  0.75657839    -0.02800
C3589       C  0.52355662  0.42824518  0.73741992     0.07100
C3590       C  0.53888424  0.41944070  0.74851866    -0.03000
Br3591     Br  0.54958103  0.40164839  0.72277157    -0.01500
Br3592     Br  0.56452429  0.40839220  0.79424359    -0.01600
Br3593     Br  0.48812230  0.44530315  0.74338849    -0.01600
Br3594     Br  0.51436579  0.46602805  0.80942010    -0.01600
C3595       C  0.57641267  0.45462065  0.53063454    -0.02700
C3596       C  0.55840132  0.45662304  0.54790820     0.07000
C3597       C  0.54474107  0.46688469  0.53507154    -0.02800
C3598       C  0.54830160  0.47395788  0.50485479    -0.02800
C3599       C  0.56203512  0.47187652  0.98520072     0.07100
C3600       C  0.57672550  0.46295152  0.99816322    -0.03000
Br3601     Br  0.60055843  0.45898508  0.97442298    -0.01500
Br3602     Br  0.59627545  0.44172938  0.54781243    -0.01600
Br3603     Br  0.52882284  0.48673412  0.48679948    -0.01600
Br3604     Br  0.51993832  0.46981540  0.55801583    -0.01600
C3605       C  0.45288689  0.30924252  0.55498062    -0.02700
C3606       C  0.45462549  0.31677263  0.52515779     0.07000
C3607       C  0.46357348  0.34189246  0.51844512    -0.02800
C3608       C  0.47264143  0.35970118  0.54135244    -0.02800
C3609       C  0.47244070  0.35228855  0.57091237     0.07100
C3610       C  0.46143995  0.32697416  0.57788446    -0.03000
Br3611     Br  0.45973962  0.31677020  0.61871125    -0.01500
Br3612     Br  0.44080385  0.27489581  0.56424047    -0.01600
Br3613     Br  0.48725655  0.39438986  0.53216015    -0.01600
Br3614     Br  0.47105557  0.35517251  0.97620093    -0.01600
C3615       C  0.45368680  0.44395130  0.61323994    -0.02700
C3616       C  0.47220090  0.45275834  0.63536438     0.07000
C3617       C  0.47568406  0.47264917  0.65373385    -0.02800
C3618       C  0.46070025  0.48353479  0.65016347    -0.02800
C3619       C  0.44342281  0.47604017  0.62655716     0.07100
C3620       C  0.43946786  0.45566962  0.60860371    -0.03000
Br3621     Br  0.41570947  0.44443381  0.57652257    -0.01500
Br3622     Br  0.44938806  0.41720920  0.58751458    -0.01600
Br3623     Br  0.46310573  0.50792647  0.67887281    -0.01600
Br3624     Br  0.50144374  0.48564959  0.68351550    -0.01600
C3625       C  0.52374731  0.32534521  0.66853863    -0.02700
C3626       C  0.51123902  0.33824362  0.67744387     0.07000
C3627       C  0.49132300  0.32674888  0.69800279    -0.02800
C3628       C  0.48131959  0.30165284  0.70504845    -0.02800
C3629       C  0.49209370  0.28804766  0.69350424     0.07100
C3630       C  0.51425972  0.30034709  0.67690880    -0.03000
Br3631     Br  0.53073564  0.28254558  0.66416744    -0.01500
Br3632     Br  0.55319309  0.34091693  0.64399147    -0.01600
Br3633     Br  0.45224013  0.28580098  0.73036389    -0.01600
Br3634     Br  0.47757262  0.34514254  0.71749674    -0.01600
C3635       C  0.17715000  0.51708531  0.81106955    -0.02700
C3636       C  0.17188309  0.51712916  0.84157847     0.07000
C3637       C  0.18442195  0.51074336  0.86268159    -0.02800
C3638       C  0.19971296  0.50135355  0.85324207    -0.02800
C3639       C  0.20427948  0.50022476  0.82270622     0.07100
C3640       C  0.19410873  0.50950419  0.80170156    -0.03000
Br3641     Br  0.20198907  0.51020960  0.76004288    -0.01500
Br3642     Br  0.16038253  0.52642332  0.78226273    -0.01600
Br3643     Br  0.21303616  0.48861825  0.88235465    -0.01600
Br3644     Br  0.17939011  0.51326449  0.90471441    -0.01600
C3645       C  0.21374841  0.41791289  0.94778635    -0.02700
C3646       C  0.22261747  0.44176952  0.96005703     0.07000
C3647       C  0.23970681  0.46274391  0.94374849    -0.02800
C3648       C  0.24600868  0.46005968  0.91448595    -0.02800
C3649       C  0.23519288  0.43647179  0.90125839     0.07100
C3650       C  0.22015918  0.41533214  0.91835991    -0.03000
Br3651     Br  0.20835870  0.38302218  0.90103132    -0.01500
Br3652     Br  0.19131216  0.38888101  0.97002600    -0.01600
Br3653     Br  0.26844262  0.48897765  0.89196079    -0.01600
Br3654     Br  0.25446587  0.49541971  0.96125413    -0.01600
C3655       C  0.20862437  0.42738548  0.66261551    -0.02700
C3656       C  0.18769814  0.42881976  0.65240929     0.07000
C3657       C  0.17237734  0.43158737  0.67402184    -0.02800
C3658       C  0.18042369  0.43755904  0.70378761    -0.02800
C3659       C  0.20213618  0.43778301  0.71305321     0.07100
C3660       C  0.21430033  0.42981045  0.69317872    -0.03000
Br3661     Br  0.23681476  0.41956633  0.70862930    -0.01500
Br3662     Br  0.23124562  0.42403809  0.63581747    -0.01600
Br3663     Br  0.16171936  0.44534931  0.73190800    -0.01600
Br3664     Br  0.13941492  0.42529013  0.66416440    -0.01600
C3665       C  0.32810168  0.46298197  0.73130448    -0.02700
C3666       C  0.30626994  0.46462186  0.72741123     0.07000
C3667       C  0.30140155  0.47139528  0.69929699    -0.02800
C3668       C  0.31708899  0.47463872  0.67545202    -0.02800
C3669       C  0.34051822  0.47729068  0.68046553     0.07100
C3670       C  0.34583099  0.47050154  0.70809823    -0.03000
Br3671     Br  0.37755345  0.47255253  0.71422416    -0.01500
Br3672     Br  0.33544128  0.45376726  0.76923316    -0.01600
Br3673     Br  0.30605789  0.47447730  0.63556426    -0.01600
Br3674     Br  0.27593073  0.48018351  0.69289832    -0.01600
C3675       C  0.33373262  0.50776517  0.86238175    -0.02700
C3676       C  0.32337757  0.51561731  0.83954409     0.07000
C3677       C  0.33713158  0.54052331  0.82951504    -0.02800
C3678       C  0.36119697  0.55654439  0.84081455    -0.02800
C3679       C  0.37207040  0.54764650  0.86110695     0.07100
C3680       C  0.35795482  0.52359652  0.87263676    -0.03000
Br3681     Br  0.37252102  0.51169746  0.90167264    -0.01500
Br3682     Br  0.31586651  0.47496944  0.87968723    -0.01600
Br3683     Br  0.38035200  0.59011656  0.82670603    -0.01600
Br3684     Br  0.32503846  0.55245489  0.79774135    -0.01600
C3685       C  0.99755134  0.16685066  0.78747115    -0.02700
C3686       C  0.98795322  0.14999542  0.76332132     0.07000
C3687       C  0.00238849  0.13975606  0.75224002    -0.02800
C3688       C  0.02723354  0.14928573  0.76193911    -0.02800
C3689       C  0.03813447  0.16989279  0.78122487     0.07100
C3690       C  0.02272421  0.17748238  0.79544621    -0.03000
Br3691     Br  0.03611011  0.20244421  0.82627918    -0.01500
Br3692     Br  0.97611151  0.17486945  0.81065013    -0.01600
Br3693     Br  0.04630139  0.13429636  0.74874038    -0.01600
Br3694     Br  0.98908062  0.11346707  0.72315743    -0.01600
C3695       C  0.21490230  0.34747702  0.81076731    -0.02700
C3696       C  0.20734703  0.36250962  0.79556905     0.07000
C3697       C  0.18606415  0.35104939  0.77713615    -0.02800
C3698       C  0.17163884  0.32509379  0.77558808    -0.02800
C3699       C  0.17911862  0.31004308  0.79078450     0.07100
C3700       C  0.20108953  0.32141369  0.80793935    -0.03000
Br3701     Br  0.21130414  0.30126251  0.82959405    -0.01500
Br3702     Br  0.24308153  0.36213405  0.83728784    -0.01600
Br3703     Br  0.14148157  0.31046786  0.75226507    -0.01600
Br3704     Br  0.17686255  0.37071972  0.75257217    -0.01600
C3705       C  0.13729979  0.13402141  0.77014519    -0.02700
C3706       C  0.14330127  0.15580634  0.75402949     0.07000
C3707       C  0.15686543  0.16054052  0.72720658    -0.02800
C3708       C  0.16734778  0.14584528  0.71899374    -0.02800
C3709       C  0.16336887  0.12556788  0.73668175     0.07100
C3710       C  0.14706250  0.11880697  0.76110745    -0.03000
Br3711     Br  0.13870555  0.08907863  0.78263899    -0.01500
Br3712     Br  0.11738237  0.12558358  0.80590872    -0.01600
Br3713     Br  0.18775528  0.15391229  0.68375398    -0.01600
Br3714     Br  0.16071510  0.18684958  0.70120594    -0.01600
C3715       C  0.19732249  0.20020393  0.85186074    -0.02700
C3716       C  0.18472207  0.21331982  0.85809016     0.07000
C3717       C  0.18335648  0.22022325  0.88766343    -0.02800
C3718       C  0.19276403  0.21226182  0.91113978    -0.02800
C3719       C  0.20337738  0.19721470  0.90503187     0.07100
C3720       C  0.20668078  0.19224267  0.87525010    -0.03000
Br3721     Br  0.22275563  0.17314188  0.86672609    -0.01500
Br3722     Br  0.19952238  0.19099233  0.81139912    -0.01600
Br3723     Br  0.18879979  0.21979582  0.95179579    -0.01600
Br3724     Br  0.16676427  0.23886371  0.89602092    -0.01600
C3725       C  0.11015534  0.20819481  0.68173050    -0.02700
C3726       C  0.12552515  0.23246213  0.69197767     0.07000
C3727       C  0.13404814  0.25247984  0.67226612    -0.02800
C3728       C  0.12639354  0.24831229  0.64234323    -0.02800
C3729       C  0.11062231  0.22388077  0.63202231     0.07100
C3730       C  0.10306019  0.20377092  0.65179576    -0.03000
Br3731     Br  0.08319585  0.16987108  0.63835040    -0.01500
Br3732     Br  0.09789497  0.18097518  0.70929123    -0.01600
Br3733     Br  0.13602889  0.27644176  0.61671101    -0.01600
Br3734     Br  0.15577432  0.28555190  0.68651714    -0.01600
C3735       C  0.10488123  0.25594873  0.92499647    -0.02700
C3736       C  0.08996140  0.23528929  0.94281863     0.07000
C3737       C  0.07813150  0.21136095  0.93053788    -0.02800
C3738       C  0.08053258  0.20801223  0.90021892    -0.02800
C3739       C  0.09658721  0.22845172  0.88246309     0.07100
C3740       C  0.10866317  0.25254533  0.89484339    -0.03000
Br3741     Br  0.13165596  0.28070986  0.87153935    -0.01500
Br3742     Br  0.12008139  0.28869762  0.94208275    -0.01600
Br3743     Br  0.06113717  0.17523557  0.88322748    -0.01600
Br3744     Br  0.06040872  0.18281435  0.95581357    -0.01600
loop_ 
_geom_bond_atom_site_label_1 
_geom_bond_atom_site_label_2 
_geom_bond_distance 
_geom_bond_site_symmetry_2 
_ccdc_geom_bond_type 
Fe1          O17   2.083       .  S
Fe1           O7   2.059       .  S
Fe1          O14   2.051       .  S
Fe1           O6   2.080       .  S
Fe1          O12   1.955       .  S
Fe2           O5   2.069       .  S
Fe2           O9   2.058       .  S
Fe2          O13   2.075       .  S
Fe2          O18   2.070       .  S
Fe2          O12   1.963       .  S
Fe3          O21   2.072       .  S
Fe3           O8   2.088       .  S
Fe3          O15   2.093       .  S
Fe3           O4   2.056       .  S
Fe3          O12   1.950       .  S
O4           C11   1.272       .  A
O5           C19   1.267       .  A
O6           C11   1.275       .  A
O7           C10   1.264       .  A
O8           C20   1.276       .  A
O9           C22   1.274       .  A
C10          O15   1.270       .  A
C10        C1817   1.487       .  S
C11        C1867   1.487       .  S
O13          C16   1.265       .  A
O14          C16   1.261       .  A
C16        C1827   1.486       .  S
O17          C22   1.278       .  A
O18          C20   1.274       .  A
C19          O21   1.268       .  A
C19        C1834   1.494       .  S
C20        C1844   1.480       .  S
C22        C1854   1.470       .  S
Fe23         O39   2.046       .  S
Fe23         O29   2.047       .  S
Fe23         O36   2.041       .  S
Fe23         O28   2.055       .  S
Fe23         O34   1.971       .  S
Fe24         O27   2.065       .  S
Fe24         O31   2.097       .  S
Fe24         O35   2.071       .  S
Fe24         O40   2.071       .  S
Fe24         O34   1.965       .  S
Fe25         O43   2.096       .  S
Fe25         O30   2.058       .  S
Fe25         O37   2.076       .  S
Fe25         O26   2.097       .  S
Fe25         O34   1.967       .  S
O26          C33   1.281       .  A
O27          C41   1.267       .  A
O28          C33   1.272       .  A
O29          C32   1.260       .  A
O30          C42   1.268       .  A
O31          C44   1.282       .  A
C32          O37   1.264       .  A
C32        C1767   1.479       .  S
C33        C1787   1.474       .  S
O35          C38   1.262       .  A
O36          C38   1.257       .  A
C38        C1824   1.493       .  S
O39          C44   1.273       .  A
O40          C42   1.271       .  A
C41          O43   1.275       .  A
C41        C1804   1.508       .  S
C42        C1794   1.482       .  S
C44        C1777   1.469       .  S
Fe45         O61   2.062       .  S
Fe45         O51   2.068       .  S
Fe45         O58   2.045       .  S
Fe45         O50   2.067       .  S
Fe45         O56   1.973       .  S
Fe46         O49   2.065       .  S
Fe46         O53   2.069       .  S
Fe46         O57   2.075       .  S
Fe46         O62   2.088       .  S
Fe46         O56   1.969       .  S
Fe47         O65   2.077       .  S
Fe47         O52   2.050       .  S
Fe47         O59   2.071       .  S
Fe47         O48   2.095       .  S
Fe47         O56   1.965       .  S
O48          C55   1.282       .  A
O49          C63   1.271       .  A
O50          C55   1.275       .  A
O51          C54   1.263       .  A
O52          C64   1.261       .  A
O53          C66   1.274       .  A
C54          O59   1.262       .  A
C54        C1744   1.486       .  S
C55        C1717   1.488       .  S
O57          C60   1.266       .  A
O58          C60   1.261       .  A
C60        C1704   1.476       .  S
O61          C66   1.273       .  A
O62          C64   1.269       .  A
C63          O65   1.276       .  A
C63        C1737   1.472       .  S
C64        C1754   1.504       .  S
C66        C1724   1.482       .  S
Fe67         O83   2.065       .  S
Fe67         O73   2.068       .  S
Fe67         O80   2.054       .  S
Fe67         O72   2.062       .  S
Fe67         O78   1.967       .  S
Fe68         O71   2.067       .  S
Fe68         O75   2.056       .  S
Fe68         O79   2.072       .  S
Fe68         O84   2.059       .  S
Fe68         O78   1.977       .  S
Fe69         O87   2.069       .  S
Fe69         O74   2.078       .  S
Fe69         O81   2.074       .  S
Fe69         O70   2.063       .  S
Fe69         O78   1.968       .  S
O70          C77   1.274       .  A
O71          C85   1.268       .  A
O72          C77   1.273       .  A
O73          C76   1.265       .  A
O74          C86   1.274       .  A
O75          C88   1.273       .  A
C76          O81   1.265       .  A
C76        C1664   1.484       .  S
C77        C1694   1.483       .  S
O79          C82   1.263       .  A
O80          C82   1.262       .  A
C82        C1747   1.484       .  S
O83          C88   1.275       .  A
O84          C86   1.268       .  A
C85          O87   1.268       .  A
C85        C1677   1.500       .  S
C86        C1797   1.473       .  S
C88        C1687   1.460       .  S
Fe89         O95   2.057       .  S
Fe89        O102   2.039       .  S
Fe89         O94   2.078       .  S
Fe89       O1977   2.066       .  S
Fe89        O100   1.961       .  S
Fe90        O101   2.090       .  S
Fe90        O106   2.073       .  S
Fe90       O1965   2.083       .  S
Fe90       O1969   2.074       .  S
Fe90        O100   1.978       .  S
Fe91        O109   2.046       .  S
Fe91         O96   2.081       .  S
Fe91        O103   2.065       .  S
Fe91         O92   2.054       .  S
Fe91        O100   1.967       .  S
O92          C99   1.269       .  A
O93       Fe1962   2.065   1_554  S
O93        C1979   1.265   1_554  A
O94          C99   1.274       .  A
O95          C98   1.264       .  A
O96         C108   1.274       .  A
O97       Fe1962   2.080   1_554  S
O97         C110   1.279       .  A
C98         O103   1.262       .  A
C98        C1614   1.484       .  S
C99        C1654   1.494       .  S
O101        C104   1.266       .  A
O102        C104   1.259       .  A
C104       C1624   1.491       .  S
O105      Fe1961   2.045   1_554  S
O105        C110   1.269       .  A
O106        C108   1.272       .  A
C107        O109   1.261       .  A
C107       O1965   1.271       .  A
C107       C3509   1.492       .  S
C108       C1847   1.478       .  S
C110       C1644   1.471       .  S
Fe111       O127   2.078       .  S
Fe111       O117   2.062       .  S
Fe111       O124   2.065       .  S
Fe111       O116   2.075       .  S
Fe111       O122   1.964       .  S
Fe112       O115   2.078       .  S
Fe112       O119   2.066       .  S
Fe112       O123   2.079       .  S
Fe112       O128   2.065       .  S
Fe112       O122   1.965       .  S
Fe113       O131   2.053       .  S
Fe113       O125   2.084       .  S
Fe113      O1990   2.072       .  S
Fe113      O1986   2.035       .  S
Fe113       O122   1.960       .  S
O114      Fe1985   2.054   1_554  S
O114        C121   1.270       .  A
O115        C129   1.270       .  A
O116       C1993   1.274       .  A
O117        C120   1.266       .  A
O118      Fe1985   2.077       .  S
O118       C2002   1.274       .  A
O119        C132   1.275       .  A
C120        O125   1.267       .  A
C120       C1574   1.485       .  S
C121       O1988   1.271   1_554  A
C121       C1604   1.493       .  S
O123        C126   1.267       .  A
O124        C126   1.264       .  A
C126       C1627   1.487       .  S
O127        C132   1.276       .  A
O128        C130   1.271       .  A
C129        O131   1.266       .  A
C129       C1584   1.482       .  S
C130       O1990   1.271       .  A
C130       C3606   1.469       .  S
C132       C1594   1.471       .  S
Fe133       O149   2.028       .  S
Fe133       O139   2.056       .  S
Fe133       O146   2.083       .  S
Fe133       O138   2.028       .  S
Fe133       O144   1.958       .  S
Fe134       O137   2.073       .  S
Fe134       O141   2.079       .  S
Fe134       O145   2.056       .  S
Fe134       O150   2.062       .  S
Fe134       O144   1.975       .  S
Fe135       O153   2.083       .  S
Fe135       O140   2.065       .  S
Fe135       O147   2.088       .  S
Fe135       O136   2.098       .  S
Fe135       O144   1.968       .  S
O136        C143   1.269       .  A
O137        C151   1.272       .  A
O138        C143   1.255       .  A
O139        C142   1.273       .  A
O140        C152   1.269       .  A
O141        C154   1.265       .  A
C142        O147   1.277       .  A
C142       C1544   1.474       .  S
C143       C1537   1.499       .  S
O145        C148   1.272       .  A
O146        C148   1.276       .  A
C148       C1554   1.470       .  S
O149        C154   1.257       .  A
O150        C152   1.268       .  A
C151        O153   1.274       .  A
C151       C1577   1.494       .  S
C152       C1564   1.474       .  S
C154       C1524   1.487       .  S
Fe155       O171   2.040       .  S
Fe155       O161   2.072       .  S
Fe155       O168   2.074       .  S
Fe155       O160   2.035       .  S
Fe155       O166   1.963       .  S
Fe156       O159   2.059       .  S
Fe156       O163   2.092       .  S
Fe156       O167   2.046       .  S
Fe156       O172   2.074       .  S
Fe156       O166   1.975       .  S
Fe157       O175   2.077       .  S
Fe157       O162   2.064       .  S
Fe157       O169   2.067       .  S
Fe157       O158   2.091       .  S
Fe157       O166   1.980       .  S
O158        C165   1.269       .  A
O159        C173   1.268       .  A
O160        C165   1.260       .  A
O161        C164   1.273       .  A
O162        C174   1.270       .  A
O163        C176   1.270       .  A
C164        O169   1.271       .  A
C164       C1484   1.474       .  S
C165       C1534   1.482       .  S
O167        C170   1.268       .  A
O168        C170   1.270       .  A
C170       C1494   1.466       .  S
O171        C176   1.263       .  A
O172        C174   1.272       .  A
C173        O175   1.271       .  A
C173       C1517   1.475       .  S
C174       C1504   1.475       .  S
C176       C1474   1.490       .  S
Fe177       O193   2.041       .  S
Fe177       O183   2.050       .  S
Fe177       O190   2.055       .  S
Fe177       O182   2.030       .  S
Fe177       O188   1.968       .  S
Fe178       O181   2.084       .  S
Fe178       O185   2.077       .  S
Fe178       O189   2.066       .  S
Fe178       O194   2.064       .  S
Fe178       O188   1.971       .  S
Fe179       O197   2.072       .  S
Fe179       O184   2.070       .  S
Fe179       O191   2.084       .  S
Fe179       O180   2.089       .  S
Fe179       O188   1.969       .  S
O180        C187   1.266       .  A
O181        C195   1.271       .  A
O182        C187   1.253       .  A
O183        C186   1.272       .  A
O184        C196   1.270       .  A
O185        C198   1.265       .  A
C186        O191   1.278       .  A
C186       C1657   1.481       .  S
C187       C1457   1.511       .  S
O189        C192   1.275       .  A
O190        C192   1.272       .  A
C192       C1647   1.467       .  S
O193        C198   1.261       .  A
O194        C196   1.269       .  A
C195        O197   1.270       .  A
C195       C1464   1.506       .  S
C196       C1447   1.470       .  S
C198       C1837   1.485       .  S
Fe199       O215   2.053       .  S
Fe199       O205   2.081       .  S
Fe199       O212   2.074       .  S
Fe199       O204   2.051       .  S
Fe199       O210   1.950       .  S
Fe200       O203   2.062       .  S
Fe200       O207   2.084       .  S
Fe200       O211   2.053       .  S
Fe200       O216   2.071       .  S
Fe200       O210   1.959       .  S
Fe201       O219   2.076       .  S
Fe201       O206   2.056       .  S
Fe201       O213   2.040       .  S
Fe201       O202   2.081       .  S
Fe201       O210   1.965       .  S
O202        C209   1.267       .  A
O203        C217   1.268       .  A
O204        C209   1.264       .  A
O205        C208   1.275       .  A
O206        C218   1.268       .  A
O207        C220   1.268       .  A
C208        O213   1.269       .  A
C208       C1607   1.461       .  S
C209       C1454   1.486       .  S
O211        C214   1.271       .  A
O212        C214   1.274       .  A
C214       C1597   1.476       .  S
O215        C220   1.265       .  A
O216        C218   1.272       .  A
C217        O219   1.272       .  A
C217       C1437   1.484       .  S
C218       C1567   1.464       .  S
C220       C1757   1.482       .  S
Fe221       O237   2.064       .  S
Fe221       O234   2.071       .  S
Fe221       O226   2.048       .  S
Fe221      O2099   2.082   1_554  S
Fe221       O232   1.956       .  S
Fe222       O225   2.083       .  S
Fe222       O229   2.109       .  S
Fe222       O233   2.069       .  S
Fe222       O238   2.083       .  S
Fe222       O232   1.956       .  S
Fe223       O241   2.077       .  S
Fe223       O228   2.059       .  S
Fe223       O224   2.092       .  S
Fe223      O2107   2.046   1_554  S
Fe223       O232   1.974       .  S
O224        C231   1.267       .  A
O225        C239   1.271       .  A
O226        C231   1.260       .  A
O227      Fe2093   2.091       .  S
O227        C230   1.279       .  A
O228        C240   1.272       .  A
O229        C242   1.275       .  A
C230        O235   1.273       .  A
C230       C1414   1.476       .  S
C231       C1407   1.499       .  S
O233        C236   1.273       .  A
O234        C236   1.271       .  A
O235      Fe2095   2.057       .  S
C236       C1424   1.490       .  S
O237        C242   1.267       .  A
O238        C240   1.277       .  A
C239        O241   1.269       .  A
C239       C1617   1.498   1_565  S
C240       C1444   1.472       .  S
C242       C1397   1.508       .  S
Fe243       O259   2.026       .  S
Fe243       O249   2.068       .  S
Fe243       O256   2.092       .  S
Fe243       O248   2.031       .  S
Fe243       O254   1.958       .  S
Fe244       O247   2.074       .  S
Fe244       O251   2.103       .  S
Fe244       O260   2.068       .  S
Fe244      O2127   2.046   1_554  S
Fe244       O254   1.978       .  S
Fe245       O263   2.070       .  S
Fe245       O250   2.062       .  S
Fe245       O257   2.083       .  S
Fe245       O246   2.096       .  S
Fe245       O254   1.973       .  S
O246        C253   1.267       .  A
O247        C261   1.273       .  A
O248        C253   1.254       .  A
O249        C252   1.274       .  A
O250        C262   1.269       .  A
O251        C264   1.271       .  A
C252        O257   1.275       .  A
C252       C1374   1.479       .  S
C253       C1404   1.518       .  S
O255      Fe2116   2.051       .  S
O255        C258   1.271       .  A
O256       C2130   1.277   1_554  A
C258       O2128   1.275       .  A
C258       C1384   1.474       .  S
O259        C264   1.257       .  A
O260        C262   1.270       .  A
C261        O263   1.271       .  A
C261       C1367   1.478       .  S
C262       C3379   1.473   1_554  S
C264       C1357   1.497       .  S
Fe265       O281   2.057       .  S
Fe265       O271   2.083       .  S
Fe265       O278   2.070       .  S
Fe265       O270   2.074       .  S
Fe265       O276   1.934       .  S
Fe266       O269   2.040       .  S
Fe266       O273   2.092       .  S
Fe266       O277   2.064       .  S
Fe266       O282   2.101       .  S
Fe266       O276   1.949       .  S
Fe267       O285   2.111       .  S
Fe267       O272   2.043       .  S
Fe267       O279   2.071       .  S
Fe267       O268   2.087       .  S
Fe267       O276   1.937       .  S
O268        C275   1.269       .  A
O269        C283   1.264       .  A
O270        C275   1.271       .  A
O271        C274   1.273       .  A
O272        C284   1.266       .  A
O273        C286   1.277       .  A
C274        O279   1.272       .  A
C274       C1514   1.476       .  S
C275       C1377   1.504       .  S
O277        C280   1.267       .  A
O278        C280   1.269       .  A
C280       C1324   1.480       .  S
O281        C286   1.273       .  A
O282        C284   1.276       .  A
C283        O285   1.274       .  A
C283       C1334   1.495       .  S
C284       C1347   1.479       .  S
C286       C1387   1.473       .  S
Fe287       O303   2.096       .  S
Fe287       O293   2.058       .  S
Fe287       O300   2.054       .  S
Fe287       O292   2.090       .  S
Fe287       O298   1.967       .  S
Fe288       O291   2.068       .  S
Fe288       O295   2.065       .  S
Fe288       O299   2.071       .  S
Fe288       O304   2.070       .  S
Fe288       O298   1.971       .  S
Fe289       O307   2.066       .  S
Fe289       O294   2.077       .  S
Fe289       O301   2.086       .  S
Fe289       O290   2.056       .  S
Fe289       O298   1.962       .  S
O290        C297   1.273       .  A
O291        C305   1.269       .  A
O292        C297   1.278       .  A
O293        C296   1.264       .  A
O294        C306   1.272       .  A
O295        C308   1.274       .  A
C296        O301   1.268       .  A
C296       C1467   1.488       .  S
C297       C1417   1.480       .  S
O299        C302   1.265       .  A
O300        C302   1.262       .  A
C302       C1327   1.482       .  S
O303        C308   1.279       .  A
O304        C306   1.270       .  A
C305        O307   1.268       .  A
C305       C1314   1.492       .  S
C306       C1304   1.474       .  S
C308       C1427   1.481       .  S
Fe309       O325   2.091       .  S
Fe309       O315   2.056       .  S
Fe309       O322   2.057       .  S
Fe309       O314   2.084       .  S
Fe309       O320   1.966       .  S
Fe310       O313   2.070       .  S
Fe310       O317   2.062       .  S
Fe310       O321   2.081       .  S
Fe310       O326   2.063       .  S
Fe310       O320   1.978       .  S
Fe311       O329   2.074       .  S
Fe311       O316   2.069       .  S
Fe311       O323   2.077       .  S
Fe311       O312   2.063       .  S
Fe311       O320   1.969       .  S
O312        C319   1.274       .  A
O313        C327   1.270       .  A
O314        C319   1.276       .  A
O315        C318   1.265       .  A
O316        C328   1.270       .  A
O317        C330   1.271       .  A
C318        O323   1.267       .  A
C318       C1244   1.483       .  S
C319       C1274   1.483       .  S
O321        C324   1.267       .  A
O322        C324   1.264       .  A
C324       C1284   1.490       .  S
O325        C330   1.277       .  A
O326        C328   1.269       .  A
C327        O329   1.270       .  A
C327       C1294   1.491       .  S
C328       C1257   1.469       .  S
C330       C1267   1.477       .  S
Fe331       O347   2.067       .  S
Fe331       O337   2.094       .  S
Fe331       O344   2.083       .  S
Fe331       O336   2.082       .  S
Fe331       O342   1.935       .  S
Fe332       O335   2.039       .  S
Fe332       O339   2.099       .  S
Fe332       O343   2.078       .  S
Fe332       O348   2.113       .  S
Fe332       O342   1.950       .  S
Fe333       O351   2.096       .  S
Fe333       O338   2.033       .  S
Fe333       O345   2.052       .  S
Fe333       O334   2.088       .  S
Fe333       O342   1.934       .  S
O334        C341   1.271       .  A
O335        C349   1.261       .  A
O336        C341   1.273       .  A
O337        C340   1.274       .  A
O338        C350   1.262       .  A
O339        C352   1.279       .  A
C340        O345   1.267       .  A
C340       C1217   1.472       .  S
C341       C1237   1.501       .  S
O343        C346   1.271       .  A
O344        C346   1.272       .  A
C346       C1287   1.493       .  S
O347        C352   1.275       .  A
O348        C350   1.277       .  A
C349        O351   1.269       .  A
C349       C1354   1.496       .  S
C350       C1344   1.481       .  S
C352       C1224   1.486       .  S
Fe353       O369   2.086       .  S
Fe353       O359   2.044       .  S
Fe353       O366   2.052       .  S
Fe353       O358   2.076       .  S
Fe353       O364   1.956       .  S
Fe354       O357   2.060       .  S
Fe354       O361   2.069       .  S
Fe354       O365   2.086       .  S
Fe354       O370   2.073       .  S
Fe354       O364   1.966       .  S
Fe355       O373   2.060       .  S
Fe355       O367   2.077       .  S
Fe355      O2232   2.070       .  S
Fe355      O2228   2.048       .  S
Fe355       O364   1.960       .  S
O356      Fe2227   2.053   1_554  S
O356        C363   1.272       .  A
O357        C371   1.267       .  A
O358       C2235   1.273       .  A
O359        C362   1.264       .  A
O360      Fe2227   2.070   1_554  S
O360       C2244   1.271       .  A
O361        C374   1.273       .  A
C362        O367   1.267       .  A
C362       C1164   1.475       .  S
C363       O2230   1.273   1_554  A
C363       C1204   1.479       .  S
O365        C368   1.268       .  A
O366        C368   1.263       .  A
C368       C1174   1.489       .  S
O369        C374   1.276       .  A
O370        C372   1.274       .  A
C371        O373   1.267       .  A
C371       C1184   1.475       .  S
C372       O2232   1.272       .  A
C372       C3126   1.472       .  S
C374       C1194   1.479       .  S
Fe375       O381   2.044       .  S
Fe375       O388   2.047       .  S
Fe375       O380   2.068       .  S
Fe375      O2263   2.056       .  S
Fe375       O386   1.973       .  S
Fe376       O387   2.098       .  S
Fe376       O392   2.070       .  S
Fe376      O2251   2.099       .  S
Fe376      O2255   2.092       .  S
Fe376       O386   1.973       .  S
Fe377       O395   2.071       .  S
Fe377       O382   2.063       .  S
Fe377       O389   2.078       .  S
Fe377       O378   2.072       .  S
Fe377       O386   1.982       .  S
O378        C385   1.273       .  A
O379      Fe2248   2.106       .  S
O379       C2265   1.280       .  A
O380        C385   1.271       .  A
O381        C384   1.261       .  A
O382        C394   1.268       .  A
O383      Fe2248   2.075   1_554  S
O383        C396   1.272       .  A
C384        O389   1.265       .  A
C384       C1134   1.480       .  S
C385       C1154   1.472       .  S
O387        C390   1.271       .  A
O388        C390   1.260       .  A
C390       C1177   1.502       .  S
O391      Fe2247   2.056   1_554  S
O391        C396   1.270       .  A
O392        C394   1.268       .  A
C393        O395   1.271       .  A
C393       O2251   1.278       .  A
C393       C3266   1.487       .  S
C394       C1307   1.488       .  S
C396       C1147   1.483       .  S
Fe397       O413   2.038       .  S
Fe397       O403   2.056       .  S
Fe397       O410   2.072       .  S
Fe397       O402   2.057       .  S
Fe397       O408   1.948       .  S
Fe398       O401   2.100       .  S
Fe398       O405   2.087       .  S
Fe398       O409   2.080       .  S
Fe398       O414   2.057       .  S
Fe398       O408   1.965       .  S
Fe399       O417   2.072       .  S
Fe399       O404   2.077       .  S
Fe399       O411   2.099       .  S
Fe399       O400   2.076       .  S
Fe399       O408   1.948       .  S
O400        C407   1.265       .  A
O401        C415   1.278       .  A
O402        C407   1.261       .  A
O403        C406   1.273       .  A
O404        C416   1.270       .  A
O405        C418   1.272       .  A
C406        O411   1.277       .  A
C406       C1157   1.492       .  S
C407       C1114   1.493       .  S
O409        C412   1.275       .  A
O410        C412   1.277       .  A
C412       C1144   1.482       .  S
O413        C418   1.260       .  A
O414        C416   1.267       .  A
C415        O417   1.272       .  A
C415       C1124   1.499       .  S
C416       C1104   1.477       .  S
C418       C1317   1.491       .  S
Fe419       O435   2.065       .  S
Fe419       O425   2.099       .  S
Fe419       O432   2.090       .  S
Fe419       O424   2.058       .  S
Fe419       O430   1.952       .  S
Fe420       O423   2.062       .  S
Fe420       O427   2.076       .  S
Fe420       O431   2.056       .  S
Fe420       O436   2.064       .  S
Fe420       O430   1.954       .  S
Fe421       O439   2.069       .  S
Fe421       O426   2.072       .  S
Fe421       O433   2.048       .  S
Fe421       O422   2.071       .  S
Fe421       O430   1.968       .  S
O422        C429   1.264       .  A
O423        C437   1.267       .  A
O424        C429   1.263       .  A
O425        C428   1.281       .  A
O426        C438   1.273       .  A
O427        C440   1.266       .  A
C428        O433   1.273       .  A
C428       C1207   1.472       .  S
C429       C1117   1.491       .  S
O431        C434   1.270       .  A
O432        C434   1.277       .  A
C434       C1197   1.487       .  S
O435        C440   1.267       .  A
O436        C438   1.271       .  A
C437        O439   1.267       .  A
C437       C1707   1.481       .  S
C438       C1094   1.467       .  S
C440       C1297   1.482       .  S
Fe441       O457   2.034       .  S
Fe441       O447   2.078       .  S
Fe441       O454   2.082       .  S
Fe441       O446   2.045       .  S
Fe441       O452   1.962       .  S
Fe442       O445   2.065       .  S
Fe442       O449   2.087       .  S
Fe442       O453   2.059       .  S
Fe442       O458   2.086       .  S
Fe442       O452   1.970       .  S
Fe443       O461   2.068       .  S
Fe443       O448   2.062       .  S
Fe443       O455   2.081       .  S
Fe443       O444   2.087       .  S
Fe443       O452   1.967       .  S
O444        C451   1.266       .  A
O445        C459   1.267       .  A
O446        C451   1.256       .  A
O447        C450   1.277       .  A
O448        C460   1.270       .  A
O449        C462   1.267       .  A
C450        O455   1.277       .  A
C450       C1727   1.480       .  S
C451       C1084   1.516       .  S
O453        C456   1.272       .  A
O454        C456   1.278       .  A
C456       C1714   1.478       .  S
O457        C462   1.258       .  A
O458        C460   1.274       .  A
C459        O461   1.267       .  A
C459       C1167   1.496       .  S
C460       C1097   1.476       .  S
C462       C1587   1.477       .  S
Fe463       O479   2.054       .  S
Fe463       O469   2.060       .  S
Fe463       O476   2.041       .  S
Fe463       O468   2.039       .  S
Fe463       O474   1.971       .  S
Fe464       O467   2.070       .  S
Fe464       O471   2.094       .  S
Fe464       O475   2.055       .  S
Fe464       O480   2.071       .  S
Fe464       O474   1.969       .  S
Fe465       O483   2.077       .  S
Fe465       O470   2.083       .  S
Fe465       O477   2.074       .  S
Fe465       O466   2.095       .  S
Fe465       O474   1.976       .  S
O466        C473   1.268       .  A
O467        C481   1.268       .  A
O468        C473   1.260       .  A
O469        C472   1.271       .  A
O470        C482   1.276       .  A
O471        C484   1.271       .  A
C472        O477   1.277       .  A
C472       C1697   1.481       .  S
C473       C1087   1.490       .  S
O475        C478   1.269       .  A
O476        C478   1.264       .  A
C478       C1684   1.466       .  S
O479        C484   1.266       .  A
O480        C482   1.273       .  A
C481        O483   1.268       .  A
C481       C1074   1.485       .  S
C482       C1064   1.478       .  S
C484       C1807   1.492       .  S
Fe485       O501   2.061       .  S
Fe485       O491   2.045       .  S
Fe485       O498   2.040       .  S
Fe485       O490   2.047       .  S
Fe485       O496   1.965       .  S
Fe486       O489   2.061       .  S
Fe486       O493   2.079       .  S
Fe486       O502   2.060       .  S
Fe486      O2369   2.070   1_554  S
Fe486       O496   1.976       .  S
Fe487       O505   2.074       .  S
Fe487       O492   2.076       .  S
Fe487       O499   2.086       .  S
Fe487       O488   2.071       .  S
Fe487       O496   1.980       .  S
O488        C495   1.264       .  A
O489        C503   1.268       .  A
O490        C495   1.263       .  A
O491        C494   1.268       .  A
O492        C504   1.272       .  A
O493        C506   1.266       .  A
C494        O499   1.274       .  A
C494       C1047   1.500       .  S
C495       C1037   1.482       .  S
O497      Fe2358   2.081       .  S
O497        C500   1.274       .  A
O498       C2372   1.263   1_554  A
C500       O2370   1.267       .  A
C500       C1054   1.477       .  S
O501        C506   1.268       .  A
O502        C504   1.270       .  A
C503        O505   1.270       .  A
C503       C1667   1.482       .  S
C504       C2939   1.482   1_554  S
C506       C1024   1.493       .  S
Fe507       O523   2.064       .  S
Fe507       O520   2.049       .  S
Fe507       O512   2.043       .  S
Fe507      O2385   2.052   1_554  S
Fe507       O518   1.954       .  S
Fe508       O511   2.061       .  S
Fe508       O515   2.067       .  S
Fe508       O519   2.093       .  S
Fe508       O524   2.032       .  S
Fe508       O518   1.954       .  S
Fe509       O527   2.071       .  S
Fe509       O514   2.110       .  S
Fe509       O510   2.082       .  S
Fe509      O2393   2.119   1_554  S
Fe509       O518   1.963       .  S
O510        C517   1.264       .  A
O511        C525   1.266       .  A
O512        C517   1.257       .  A
O513      Fe2379   2.067       .  S
O513        C516   1.279       .  A
O514        C526   1.280       .  A
O515        C528   1.262       .  A
C516        O521   1.286       .  A
C516       C1004   1.489       .  S
C517       C1034   1.484       .  S
O519        C522   1.277       .  A
O520        C522   1.270       .  A
O521      Fe2381   2.115       .  S
C522       C1017   1.472       .  S
O523        C528   1.262       .  A
O524        C526   1.267       .  A
C525        O527   1.268       .  A
C525       C1137   1.477       .  S
C526       C1107   1.502       .  S
C528        C994   1.494       .  S
Fe529       O545   2.045       .  S
Fe529       O535   2.072       .  S
Fe529       O542   2.085       .  S
Fe529       O534   2.038       .  S
Fe529       O540   1.959       .  S
Fe530       O533   2.090       .  S
Fe530       O537   2.095       .  S
Fe530       O541   2.070       .  S
Fe530       O546   2.069       .  S
Fe530       O540   1.973       .  S
Fe531       O549   2.062       .  S
Fe531       O536   2.051       .  S
Fe531       O543   2.060       .  S
Fe531       O532   2.067       .  S
Fe531       O540   1.977       .  S
O532        C539   1.264       .  A
O533        C547   1.275       .  A
O534        C539   1.260       .  A
O535        C538   1.274       .  A
O536        C548   1.266       .  A
O537        C550   1.270       .  A
C538        O543   1.269       .  A
C538        C964   1.469       .  S
C539        C954   1.471       .  S
O541        C544   1.274       .  A
O542        C544   1.274       .  A
C544        C977   1.479       .  S
O545        C550   1.262       .  A
O546        C548   1.270       .  A
C547        O549   1.269       .  A
C547       C1814   1.492       .  S
C548        C984   1.463       .  S
C550        C944   1.497       .  S
Fe551       O567   2.037       .  S
Fe551       O557   2.076       .  S
Fe551       O564   2.099       .  S
Fe551       O556   2.040       .  S
Fe551       O562   1.951       .  S
Fe552       O555   2.078       .  S
Fe552       O559   2.112       .  S
Fe552       O563   2.052       .  S
Fe552       O568   2.100       .  S
Fe552       O562   1.959       .  S
Fe553       O571   2.077       .  S
Fe553       O558   2.060       .  S
Fe553       O565   2.058       .  S
Fe553       O554   2.080       .  S
Fe553       O562   1.952       .  S
O554        C561   1.270       .  A
O555        C569   1.273       .  A
O556        C561   1.264       .  A
O557        C560   1.271       .  A
O558        C570   1.266       .  A
O559        C572   1.273       .  A
C560        O565   1.270       .  A
C560        C924   1.473       .  S
C561        C957   1.489       .  S
O563        C566   1.272       .  A
O564        C566   1.278       .  A
C566        C934   1.477       .  S
O567        C572   1.258       .  A
O568        C570   1.278       .  A
C569        O571   1.275       .  A
C569       C1247   1.496       .  S
C570        C914   1.487       .  S
C572        C904   1.494       .  S
Fe573       O589   2.056       .  S
Fe573       O586   2.065       .  S
Fe573       O578   2.042       .  S
Fe573      O2451   2.082   1_554  S
Fe573       O584   1.949       .  S
Fe574       O577   2.065       .  S
Fe574       O581   2.096       .  S
Fe574       O585   2.049       .  S
Fe574       O590   2.070       .  S
Fe574       O584   1.955       .  S
Fe575       O593   2.075       .  S
Fe575       O580   2.051       .  S
Fe575       O576   2.084       .  S
Fe575      O2459   2.039   1_554  S
Fe575       O584   1.967       .  S
O576        C583   1.266       .  A
O577        C591   1.269       .  A
O578        C583   1.260       .  A
O579      Fe2445   2.096       .  S
O579        C582   1.278       .  A
O580        C592   1.269       .  A
O581        C594   1.272       .  A
C582        O587   1.272       .  A
C582       C1864   1.473       .  S
C583        C884   1.488       .  S
O585        C588   1.268       .  A
O586        C588   1.270       .  A
O587      Fe2447   2.049       .  S
C588       C1857   1.469       .  S
O589        C594   1.267       .  A
O590        C592   1.273       .  A
C591        O593   1.270       .  A
C591        C894   1.483   1_455  S
C592        C987   1.458       .  S
C594       C1634   1.487       .  S
Fe595       O611   2.054       .  S
Fe595       O601   2.109       .  S
Fe595       O608   2.084       .  S
Fe595       O600   2.036       .  S
Fe595       O606   1.936       .  S
Fe596       O599   2.059       .  S
Fe596       O603   2.090       .  S
Fe596       O612   2.074       .  S
Fe596      O2479   2.051   1_554  S
Fe596       O606   1.947       .  S
Fe597       O615   2.083       .  S
Fe597       O602   2.066       .  S
Fe597       O609   2.042       .  S
Fe597       O598   2.109       .  S
Fe597       O606   1.957       .  S
O598        C605   1.271       .  A
O599        C613   1.268       .  A
O600        C605   1.258       .  A
O601        C604   1.278       .  A
O602        C614   1.271       .  A
O603        C616   1.273       .  A
C604        O609   1.266       .  A
C604       C1784   1.508       .  S
C605        C887   1.503       .  S
O607      Fe2468   2.051       .  S
O607        C610   1.267       .  A
O608       C2482   1.271   1_554  A
C610       O2480   1.271       .  A
C610       C1774   1.479       .  S
O611        C616   1.270       .  A
O612        C614   1.273       .  A
C613        O615   1.273       .  A
C613       C1214   1.475       .  S
C614       C2746   1.468   1_554  S
C616       C1674   1.477       .  S
Fe617       O633   2.046       .  S
Fe617       O623   2.112       .  S
Fe617       O630   2.087       .  S
Fe617       O622   2.039       .  S
Fe617       O628   1.945       .  S
Fe618       O621   2.074       .  S
Fe618       O625   2.074       .  S
Fe618       O629   2.045       .  S
Fe618       O634   2.078       .  S
Fe618       O628   1.948       .  S
Fe619       O637   2.084       .  S
Fe619       O624   2.087       .  S
Fe619       O631   2.068       .  S
Fe619       O620   2.082       .  S
Fe619       O628   1.965       .  S
O620        C627   1.263       .  A
O621        C635   1.266       .  A
O622        C627   1.257       .  A
O623        C626   1.283       .  A
O624        C636   1.277       .  A
O625        C638   1.271       .  A
C626        O631   1.279       .  A
C626       C1277   1.497       .  S
C627        C857   1.480       .  S
O629        C632   1.265       .  A
O630        C632   1.270       .  A
C632       C1264   1.498       .  S
O633        C638   1.267       .  A
O634        C636   1.278       .  A
C635        O637   1.271       .  A
C635        C867   1.487       .  S
C636        C917   1.494       .  S
C638       C1187   1.465       .  S
Fe639       O655   2.032       .  S
Fe639       O645   2.050       .  S
Fe639       O652   2.078       .  S
Fe639       O644   2.022       .  S
Fe639       O650   1.967       .  S
Fe640       O643   2.065       .  S
Fe640       O647   2.097       .  S
Fe640       O651   2.051       .  S
Fe640       O656   2.066       .  S
Fe640       O650   1.978       .  S
Fe641       O659   2.071       .  S
Fe641       O646   2.070       .  S
Fe641       O653   2.097       .  S
Fe641       O642   2.085       .  S
Fe641       O650   1.979       .  S
O642        C649   1.265       .  A
O643        C657   1.271       .  A
O644        C649   1.253       .  A
O645        C648   1.270       .  A
O646        C658   1.268       .  A
O647        C660   1.269       .  A
C648        O653   1.277       .  A
C648       C1234   1.483       .  S
C649        C854   1.502       .  S
O651        C654   1.270       .  A
O652        C654   1.272       .  A
C654       C1227   1.468       .  S
O655        C660   1.259       .  A
O656        C658   1.270       .  A
C657        O659   1.272       .  A
C657       C1764   1.472       .  S
C658        C877   1.483       .  S
C660       C1337   1.504       .  S
Fe661       O677   2.066       .  S
Fe661       O667   2.086       .  S
Fe661       O674   2.077       .  S
Fe661       O666   2.076       .  S
Fe661       O672   1.919       .  S
Fe662       O665   2.056       .  S
Fe662       O669   2.094       .  S
Fe662       O673   2.078       .  S
Fe662       O678   2.115       .  S
Fe662       O672   1.943       .  S
Fe663       O681   2.107       .  S
Fe663       O668   2.044       .  S
Fe663       O675   2.088       .  S
Fe663       O664   2.098       .  S
Fe663       O672   1.935       .  S
O664        C671   1.274       .  A
O665        C679   1.264       .  A
O666        C671   1.273       .  A
O667        C670   1.273       .  A
O668        C680   1.268       .  A
O669        C682   1.277       .  A
C670        O675   1.274       .  A
C670       C1127   1.506       .  S
C671       C1007   1.505       .  S
O673        C676   1.270       .  A
O674        C676   1.269       .  A
C676        C847   1.481       .  S
O677        C682   1.276       .  A
O678        C680   1.278       .  A
C679        O681   1.274       .  A
C679        C947   1.497   1_565  S
C680        C834   1.486       .  S
C682       C1014   1.493       .  S
Fe683       O699   2.065       .  S
Fe683       O689   2.111       .  S
Fe683       O696   2.104       .  S
Fe683       O688   2.062       .  S
Fe683       O694   1.934       .  S
Fe684       O687   2.037       .  S
Fe684       O691   2.095       .  S
Fe684       O695   2.074       .  S
Fe684       O700   2.115       .  S
Fe684       O694   1.943       .  S
Fe685       O703   2.111       .  S
Fe685       O690   2.023       .  S
Fe685       O697   2.058       .  S
Fe685       O686   2.084       .  S
Fe685       O694   1.947       .  S
O686        C693   1.272       .  A
O687        C701   1.260       .  A
O688        C693   1.269       .  A
O689        C692   1.279       .  A
O690        C702   1.260       .  A
O691        C704   1.276       .  A
C692        O697   1.270       .  A
C692       C1077   1.483       .  S
C693       C1044   1.473       .  S
O695        C698   1.271       .  A
O696        C698   1.277       .  A
C698        C844   1.490       .  S
O699        C704   1.273       .  A
O700        C702   1.275       .  A
C701        O703   1.273       .  A
C701       C1477   1.492       .  S
C702        C824   1.480       .  S
C704       C1057   1.485       .  S
Fe705       O721   2.059       .  S
Fe705       O711   2.102       .  S
Fe705       O718   2.083       .  S
Fe705       O710   2.088       .  S
Fe705       O716   1.929       .  S
Fe706       O709   2.045       .  S
Fe706       O713   2.105       .  S
Fe706       O717   2.069       .  S
Fe706       O722   2.127       .  S
Fe706       O716   1.937       .  S
Fe707       O725   2.105       .  S
Fe707       O712   2.039       .  S
Fe707       O719   2.052       .  S
Fe707       O708   2.081       .  S
Fe707       O716   1.929       .  S
O708        C715   1.267       .  A
O709        C723   1.262       .  A
O710        C715   1.272       .  A
O711        C714   1.278       .  A
O712        C724   1.264       .  A
O713        C726   1.281       .  A
C714        O719   1.269       .  A
C714       C1434   1.481       .  S
C715       C1547   1.507       .  S
O717        C720   1.269       .  A
O718        C720   1.271       .  A
C720        C814   1.479       .  S
O721        C726   1.275       .  A
O722        C724   1.281       .  A
C723        O725   1.271       .  A
C723        C907   1.493       .  S
C724        C804   1.486       .  S
C726       C1557   1.487       .  S
Fe727       O743   2.060       .  S
Fe727       O733   2.095       .  S
Fe727       O740   2.065       .  S
Fe727       O732   2.080       .  S
Fe727       O738   1.948       .  S
Fe728       O731   2.069       .  S
Fe728       O735   2.102       .  S
Fe728       O739   2.073       .  S
Fe728       O744   2.105       .  S
Fe728       O738   1.960       .  S
Fe729       O747   2.071       .  S
Fe729       O734   2.043       .  S
Fe729       O741   2.056       .  S
Fe729       O730   2.071       .  S
Fe729       O738   1.939       .  S
O730        C737   1.265       .  A
O731        C745   1.267       .  A
O732        C737   1.270       .  A
O733        C736   1.274       .  A
O734        C746   1.267       .  A
O735        C748   1.283       .  A
C736        O741   1.268       .  A
C736       C1364   1.476       .  S
C737       C1487   1.495       .  S
O739        C742   1.266       .  A
O740        C742   1.265       .  A
C742        C817   1.478       .  S
O743        C748   1.276       .  A
O744        C746   1.280       .  A
C745        O747   1.264       .  A
C745       C1027   1.481       .  S
C746        C827   1.485       .  S
C748       C1497   1.480       .  S
Fe749       O755   2.073       .  S
Fe749       O762   2.053       .  S
Fe749       O754   2.074       .  S
Fe749      O2637   2.060       .  S
Fe749       O760   1.942       .  S
Fe750       O761   2.057       .  S
Fe750       O766   2.117       .  S
Fe750      O2625   2.044       .  S
Fe750      O2629   2.117       .  S
Fe750       O760   1.946       .  S
Fe751       O769   2.090       .  S
Fe751       O756   2.037       .  S
Fe751       O763   2.052       .  S
Fe751       O752   2.077       .  S
Fe751       O760   1.936       .  S
O752        C759   1.267       .  A
O753      Fe2622   2.048   1_554  S
O753       C2639   1.264   1_554  A
O754        C759   1.270       .  A
O755        C758   1.270       .  A
O756        C768   1.266       .  A
O757      Fe2622   2.113   1_554  S
O757        C770   1.285       .  A
C758        O763   1.268       .  A
C758        C897   1.466       .  S
C759        C967   1.496       .  S
O761        C764   1.262       .  A
O762        C764   1.262       .  A
C764        C794   1.463       .  S
O765      Fe2621   2.061   1_554  S
O765        C770   1.278       .  A
O766        C768   1.281       .  A
C767        O769   1.269       .  A
C767       O2625   1.262       .  A
C767       C2869   1.479       .  S
C768        C837   1.488       .  S
C770        C974   1.488       .  S
Fe771       O787   2.043       .  S
Fe771       O777   2.092       .  S
Fe771       O784   2.080       .  S
Fe771       O776   2.081       .  S
Fe771       O782   1.919       .  S
Fe772       O775   2.039       .  S
Fe772       O779   2.098       .  S
Fe772       O783   2.048       .  S
Fe772       O788   2.133       .  S
Fe772       O782   1.948       .  S
Fe773       O791   2.107       .  S
Fe773       O785   2.067       .  S
Fe773      O2650   2.036       .  S
Fe773      O2646   2.060       .  S
Fe773       O782   1.923       .  S
O774      Fe2645   2.075   1_554  S
O774        C781   1.271       .  A
O775        C789   1.262       .  A
O776       C2653   1.269       .  A
O777        C780   1.280       .  A
O778      Fe2645   2.041   1_554  S
O778       C2662   1.264   1_554  A
O779        C792   1.274       .  A
C780        O785   1.273       .  A
C780        C864   1.483       .  S
C781       O2648   1.266   1_554  A
C781        C927   1.502       .  S
O783        C786   1.269       .  A
O784        C786   1.274       .  A
C786        C797   1.467       .  S
O787        C792   1.268       .  A
O788        C790   1.278       .  A
C789        O791   1.273       .  A
C789       C1527   1.480       .  S
C790       O2650   1.256       .  A
C790       C2679   1.485       .  S
C792        C937   1.492       .  S
C793        C794   1.407       .  A
C793        C798   1.404       .  A
C793       Br800   1.928       .  S
C794        C795   1.406       .  A
C795        C796   1.405       .  A
C795       Br802   1.932       .  S
C796        C797   1.411       .  A
C796       Br801   1.932       .  S
C797        C798   1.408       .  A
C798       Br799   1.931       .  S
C803        C804   1.412       .  A
C803        C808   1.420       .  A
C803       Br810   1.927       .  S
C804        C805   1.416       .  A
C805        C806   1.399       .  A
C805       Br812   1.940       .  S
C806        C807   1.415       .  A
C806       Br811   1.942       .  S
C807       C2662   1.488   1_554  S
C807        C808   1.414       .  A
C808       Br809   1.925       .  S
C813        C814   1.412       .  A
C813        C818   1.410   1_545  A
C813       Br820   1.928       .  S
C814        C815   1.408       .  A
C815        C816   1.410   1_545  A
C815       Br822   1.929       .  S
C816        C817   1.410       .  A
C816       Br821   1.927       .  S
C817        C818   1.408       .  A
C818       Br819   1.930       .  S
C823        C824   1.413       .  A
C823        C828   1.394       .  A
C823       Br830   1.943       .  S
C824        C825   1.412       .  A
C825        C826   1.418       .  A
C825       Br832   1.927       .  S
C826        C827   1.414       .  A
C826       Br831   1.926       .  S
C827        C828   1.416       .  A
C828       Br829   1.943       .  S
C833        C834   1.416       .  A
C833        C838   1.422   1_565  A
C833       Br840   1.927       .  S
C834        C835   1.411       .  A
C835        C836   1.393   1_565  A
C835       Br842   1.941       .  S
C836        C837   1.415       .  A
C836       Br841   1.939       .  S
C837        C838   1.415       .  A
C838       Br839   1.926       .  S
C843        C844   1.411       .  A
C843        C848   1.411       .  A
C843       Br850   1.917       .  S
C844        C845   1.411       .  A
C845        C846   1.412       .  A
C845       Br852   1.924       .  S
C846        C847   1.407       .  A
C846       Br851   1.927       .  S
C847        C848   1.410       .  A
C848       Br849   1.932       .  S
C853        C854   1.424   1_655  A
C853        C858   1.415       .  A
C853       Br860   1.934   1_655  S
C854        C855   1.430       .  A
C855        C856   1.401   1_455  A
C855       Br862   1.947       .  S
C856        C857   1.409       .  A
C856       Br861   1.947       .  S
C857        C858   1.410       .  A
C858       Br859   1.933       .  S
C863        C864   1.402       .  A
C863        C868   1.396       .  A
C863       Br870   1.922       .  S
C864        C865   1.412       .  A
C865        C866   1.419       .  A
C865       Br872   1.925       .  S
C866        C867   1.416       .  A
C866       Br871   1.922       .  S
C867        C868   1.410       .  A
C868       Br869   1.922       .  S
C873        C874   1.407       .  A
C873        C878   1.412       .  A
C873       Br880   1.929       .  S
C874       C2486   1.472       .  S
C874        C875   1.406       .  A
C875        C876   1.404       .  A
C875      Br2754   1.929       .  S
C876        C877   1.412       .  A
C876       Br881   1.928       .  S
C877        C878   1.417       .  A
C878       Br879   1.931       .  S
Br882      C2747   1.931   1_554  S
C883        C884   1.414       .  A
C883        C888   1.418       .  A
C883       Br890   1.933       .  S
C884        C885   1.410       .  A
C885        C886   1.400       .  A
C885       Br892   1.940       .  S
C886        C887   1.423       .  A
C886       Br891   1.943       .  S
C887        C888   1.423       .  A
C888       Br889   1.933       .  S
C893        C894   1.411   1_556  A
C893        C898   1.405       .  A
C893       Br900   1.933   1_655  S
C894       C2767   1.417       .  A
C895        C896   1.406       .  A
C895       C2766   1.413       .  A
C895       Br902   1.931       .  S
C896        C897   1.405       .  A
C896       Br901   1.930       .  S
C897       C2770   1.411       .  A
C898       C2769   1.413       .  A
C898       Br899   1.933       .  S
C903        C904   1.418       .  A
C903        C908   1.405       .  A
C903       Br910   1.942       .  S
C904        C905   1.413       .  A
C905        C906   1.418       .  A
C905       Br912   1.928       .  S
C906        C907   1.415       .  A
C906       Br911   1.929       .  S
C907        C908   1.416       .  A
C908       Br909   1.941       .  S
C913        C914   1.414       .  A
C913        C918   1.418       .  A
C913       Br920   1.924       .  S
C914        C915   1.404       .  A
C915        C916   1.399       .  A
C915       Br922   1.928       .  S
C916        C917   1.412       .  A
C916       Br921   1.918       .  S
C917        C918   1.416       .  A
C918       Br919   1.927       .  S
C923        C924   1.405       .  A
C923        C928   1.416       .  A
C923       Br930   1.932       .  S
C924        C925   1.403       .  A
C925        C926   1.400       .  A
C925       Br932   1.934       .  S
C926        C927   1.420       .  A
C926       Br931   1.935       .  S
C927        C928   1.428       .  A
C928       Br929   1.933       .  S
C933        C934   1.404       .  A
C933        C938   1.402       .  A
C933       Br940   1.923       .  S
C934        C935   1.407       .  A
C935        C936   1.414       .  A
C935       Br942   1.930       .  S
C936        C937   1.421       .  A
C936       Br941   1.930       .  S
C937        C938   1.416       .  A
C938       Br939   1.937       .  S
C943        C944   1.418       .  A
C943        C948   1.406       .  A
C943       Br950   1.943       .  S
C944        C945   1.415       .  A
C945        C946   1.419       .  A
C945       Br952   1.929       .  S
C946        C947   1.416       .  A
C946       Br951   1.929   1_545  S
C947        C948   1.418       .  A
C948       Br949   1.940       .  S
C953        C954   1.406       .  A
C953        C958   1.403       .  A
C953       Br960   1.938       .  S
C954        C955   1.406       .  A
C955        C956   1.411       .  A
C955       Br962   1.932       .  S
C956        C957   1.420       .  A
C956       Br961   1.933       .  S
C957        C958   1.420       .  A
C958       Br959   1.933       .  S
C963        C964   1.401       .  A
C963        C968   1.402       .  A
C963       Br970   1.938       .  S
C964        C965   1.404       .  A
C965        C966   1.413       .  A
C965       Br972   1.929       .  S
C966        C967   1.422       .  A
C966       Br971   1.932       .  S
C967        C968   1.426       .  A
C968       Br969   1.936       .  S
C973        C974   1.414       .  A
C973        C978   1.412       .  A
C973       Br980   1.930       .  S
C974        C975   1.415       .  A
C975        C976   1.408       .  A
C975       Br982   1.926       .  S
C976        C977   1.406       .  A
C976       Br981   1.931       .  S
C977        C978   1.409       .  A
C978       Br979   1.928       .  S
C983        C984   1.409       .  A
C983        C988   1.402   1_655  A
C983       Br990   1.930   1_655  S
C984        C985   1.407       .  A
C985        C986   1.403       .  A
C985       Br992   1.925       .  S
C986        C987   1.406   1_655  A
C986       Br991   1.931       .  S
C987        C988   1.405       .  A
C988       Br989   1.929       .  S
C993        C994   1.421       .  A
C993        C998   1.417       .  A
C993      Br1000   1.930       .  S
C994        C995   1.416   1_554  A
C995        C996   1.402       .  A
C995      Br1002   1.943       .  S
C996        C997   1.413   1_565  A
C996      Br2873   1.930       .  S
C997       C2639   1.485       .  S
C997        C998   1.408   1_546  A
C998       Br999   1.928   1_565  S
Br1001     C2868   1.929       .  S
C1003      C1004   1.408       .  A
C1003      C1008   1.408       .  A
C1003     Br1010   1.932       .  S
C1004      C1005   1.407       .  A
C1005      C1006   1.417       .  A
C1005     Br1012   1.925       .  S
C1006      C1007   1.423       .  A
C1006     Br1011   1.932       .  S
C1007      C1008   1.423       .  A
C1008     Br1009   1.937       .  S
C1013      C1014   1.422       .  A
C1013      C1018   1.409       .  A
C1013     Br1020   1.930       .  S
C1014      C1015   1.414       .  A
C1015      C1016   1.407       .  A
C1015     Br1022   1.932       .  S
C1016      C1017   1.409       .  A
C1016     Br1021   1.932       .  S
C1017      C1018   1.404       .  A
C1018     Br1019   1.934       .  S
C1023      C1024   1.403       .  A
C1023      C1028   1.395       .  A
C1023     Br1030   1.922       .  S
C1024      C1025   1.417       .  A
C1025      C1026   1.421       .  A
C1025     Br1032   1.925       .  S
C1026      C1027   1.414       .  A
C1026     Br1031   1.925       .  S
C1027      C1028   1.407       .  A
C1028     Br1029   1.923       .  S
C1033      C1034   1.412       .  A
C1033      C1038   1.399       .  A
C1033     Br1040   1.928       .  S
C1034      C1035   1.414       .  A
C1035      C1036   1.417       .  A
C1035     Br2914   1.927   1_554  S
C1036      C1037   1.413       .  A
C1036     Br2913   1.929       .  S
C1037      C1038   1.409       .  A
C1038     Br1039   1.933       .  S
Br1041     C2908   1.928       .  S
Br1042     C2907   1.925       .  S
C1043      C1044   1.404       .  A
C1043      C1048   1.412       .  A
C1043     Br1050   1.928       .  S
C1044      C1045   1.405       .  A
C1045      C1046   1.400       .  A
C1045     Br1052   1.923       .  S
C1046      C1047   1.421       .  A
C1046     Br1051   1.943       .  S
C1047      C1048   1.423       .  A
C1048     Br1049   1.931       .  S
C1053      C1054   1.411       .  A
C1053      C1058   1.411       .  A
C1053     Br1060   1.931       .  S
C1054      C1055   1.405       .  A
C1055      C1056   1.405       .  A
C1055     Br1062   1.935       .  S
C1056      C1057   1.415       .  A
C1056     Br1061   1.921       .  S
C1057      C1058   1.412       .  A
C1058     Br1059   1.928       .  S
C1063      C1064   1.409       .  A
C1063      C1068   1.411       .  A
C1063     Br1070   1.929       .  S
C1064      C1065   1.408       .  A
C1065      C1066   1.409       .  A
C1065     Br1072   1.929       .  S
C1066      C1067   1.413       .  A
C1066     Br1071   1.926       .  S
C1067      C2376   1.488       .  S
C1067      C1068   1.415       .  A
C1068     Br2941   1.931       .  S
Br1069     C2940   1.932   1_554  S
C1073      C1074   1.410       .  A
C1073      C1078   1.413       .  A
C1073     Br1080   1.929       .  S
C1074      C1075   1.414       .  A
C1075      C1076   1.410       .  A
C1075     Br1082   1.930       .  S
C1076      C1077   1.406       .  A
C1076     Br1081   1.929       .  S
C1077      C1078   1.412       .  A
C1078     Br1079   1.927       .  S
C1083      C1084   1.430       .  A
C1083      C1088   1.420       .  A
C1083     Br1090   1.934       .  S
C1084      C1085   1.431       .  A
C1085      C1086   1.407       .  A
C1085     Br1092   1.942       .  S
C1086      C1087   1.406       .  A
C1086     Br1091   1.941       .  S
C1087      C1088   1.408       .  A
C1088     Br1089   1.931       .  S
C1093      C1094   1.405       .  A
C1093      C1098   1.403       .  A
C1093     Br1100   1.931       .  S
C1094      C1095   1.408       .  A
C1095      C1096   1.410       .  A
C1095     Br1102   1.928       .  S
C1096      C1097   1.411       .  A
C1096     Br1101   1.929       .  S
C1097      C1098   1.408       .  A
C1098     Br1099   1.919       .  S
C1103      C1104   1.406       .  A
C1103      C1108   1.398       .  A
C1103     Br1110   1.933       .  S
C1104      C1105   1.409       .  A
C1105      C1106   1.418       .  A
C1105     Br1112   1.927       .  S
C1106      C1107   1.420       .  A
C1106     Br1111   1.927       .  S
C1107      C1108   1.422       .  A
C1108     Br1109   1.941       .  S
C1113      C1114   1.418       .  A
C1113      C1118   1.405       .  A
C1113     Br1120   1.939       .  S
C1114      C1115   1.418       .  A
C1115      C1116   1.415       .  A
C1115     Br1122   1.934       .  S
C1116      C1117   1.416       .  A
C1116     Br1121   1.933       .  S
C1117      C1118   1.415       .  A
C1118     Br1119   1.939       .  S
C1123      C1124   1.416       .  A
C1123      C1128   1.402       .  A
C1123     Br1130   1.935       .  S
C1124      C1125   1.415       .  A
C1125      C1126   1.425       .  A
C1125     Br1132   1.928       .  S
C1126      C1127   1.422       .  A
C1126     Br1131   1.929       .  S
C1127      C1128   1.414       .  A
C1128     Br1129   1.938       .  S
C1133      C1134   1.412       .  A
C1133      C1138   1.413       .  A
C1133     Br1140   1.926       .  S
C1134      C3007   1.408       .  A
C1135      C1136   1.406       .  A
C1135      C3006   1.407   1_554  A
C1135     Br1142   1.933       .  S
C1136      C1137   1.413       .  A
C1136     Br1141   1.931       .  S
C1137      C3010   1.409   1_554  A
C1138      C3009   1.408       .  A
C1138     Br1139   1.923       .  S
C1143      C1144   1.413       .  A
C1143      C1148   1.408       .  A
C1143     Br1150   1.931       .  S
C1144      C1145   1.413       .  A
C1145      C1146   1.406       .  A
C1145     Br1152   1.930       .  S
C1146      C1147   1.410       .  A
C1146     Br1151   1.929       .  S
C1147      C1148   1.412       .  A
C1148     Br1149   1.934       .  S
C1153      C1154   1.402       .  A
C1153      C1158   1.408       .  A
C1153     Br1160   1.928       .  S
C1154      C1155   1.406       .  A
C1155      C1156   1.409       .  A
C1155     Br1162   1.934       .  S
C1156      C1157   1.418       .  A
C1156     Br1161   1.933       .  S
C1157      C1158   1.421       .  A
C1158     Br1159   1.931       .  S
C1163      C1164   1.407       .  A
C1163      C1168   1.403       .  A
C1163     Br1170   1.936       .  S
C1164      C1165   1.405       .  A
C1165      C1166   1.413       .  A
C1165     Br1172   1.930       .  S
C1166      C1167   1.424       .  A
C1166     Br1171   1.933       .  S
C1167      C1168   1.421       .  A
C1168     Br1169   1.940       .  S
C1173      C1174   1.411       .  A
C1173      C1178   1.407       .  A
C1173     Br1180   1.939       .  S
C1174      C1175   1.412       .  A
C1175      C1176   1.418       .  A
C1175     Br1182   1.931       .  S
C1176      C1177   1.419       .  A
C1176     Br1181   1.930       .  S
C1177      C1178   1.423       .  A
C1178     Br1179   1.937       .  S
C1183      C1184   1.417       .  A
C1183      C1188   1.408       .  A
C1183     Br1190   1.930       .  S
C1184      C1185   1.413       .  A
C1185      C1186   1.401       .  A
C1185     Br1192   1.936       .  S
C1186      C1187   1.408       .  A
C1186     Br1191   1.931       .  S
C1187      C1188   1.403       .  A
C1188     Br1189   1.928       .  S
C1193      C1194   1.406       .  A
C1193      C1198   1.411       .  A
C1193     Br1200   1.925       .  S
C1194      C1195   1.410       .  A
C1195      C1196   1.408       .  A
C1195     Br1202   1.931       .  S
C1196      C1197   1.417       .  A
C1196     Br1201   1.936       .  S
C1197      C1198   1.415       .  A
C1198     Br1199   1.931       .  S
C1203      C1204   1.410       .  A
C1203      C1208   1.399       .  A
C1203     Br1210   1.936       .  S
C1204      C1205   1.415       .  A
C1205      C1206   1.412       .  A
C1205     Br1212   1.930       .  S
C1206      C1207   1.408       .  A
C1206     Br1211   1.927       .  S
C1207      C1208   1.407       .  A
C1208     Br1209   1.925       .  S
C1213      C1214   1.412       .  A
C1213      C1218   1.410       .  A
C1213     Br1220   1.929       .  S
C1214      C1215   1.405       .  A
C1215      C1216   1.404       .  A
C1215     Br1222   1.925       .  S
C1216      C1217   1.410       .  A
C1216     Br1221   1.929       .  S
C1217      C1218   1.408       .  A
C1218     Br1219   1.929       .  S
C1223      C1228   1.410       .  A
C1223      C3096   1.412       .  A
C1223     Br3102   1.930       .  S
C1224      C1225   1.417       .  A
C1224      C3095   1.413       .  A
C1225      C3098   1.403   1_554  A
C1225     Br1232   1.916       .  S
C1226      C1227   1.404       .  A
C1226      C3097   1.401       .  A
C1226     Br1231   1.935       .  S
C1227      C1228   1.409       .  A
C1228     Br1229   1.928       .  S
Br1230     C3095   1.928       .  S
C1233      C1234   1.407       .  A
C1233      C1238   1.403       .  A
C1233     Br1240   1.938       .  S
C1234      C1235   1.409       .  A
C1235      C1236   1.417       .  A
C1235     Br1242   1.929       .  S
C1236      C1237   1.421       .  A
C1236     Br1241   1.929       .  S
C1237      C1238   1.422       .  A
C1238     Br1239   1.932       .  S
C1243      C1244   1.409       .  A
C1243      C1248   1.417       .  A
C1243     Br1250   1.927       .  S
C1244      C1245   1.410       .  A
C1245      C1246   1.403       .  A
C1245     Br1252   1.933       .  S
C1246      C1247   1.414       .  A
C1246     Br1251   1.935       .  S
C1247      C1248   1.420       .  A
C1248     Br1249   1.929       .  S
C1253      C1254   1.407       .  A
C1253      C1258   1.407       .  A
C1253     Br1260   1.931       .  S
C1254      C2244   1.468       .  S
C1254      C1255   1.410       .  A
C1255      C1256   1.406       .  A
C1255     Br3134   1.930   1_554  S
C1256      C1257   1.407       .  A
C1256     Br1261   1.931       .  S
C1257      C1258   1.410       .  A
C1258     Br1259   1.930       .  S
Br1262     C3127   1.929       .  S
C1263      C1264   1.420       .  A
C1263      C1268   1.404       .  A
C1263     Br1270   1.936       .  S
C1264      C1265   1.421       .  A
C1265      C1266   1.415       .  A
C1265     Br1272   1.931       .  S
C1266      C1267   1.407       .  A
C1266     Br1271   1.926       .  S
C1267      C1268   1.404       .  A
C1268     Br1269   1.932       .  S
C1273      C1274   1.412       .  A
C1273      C1278   1.413       .  A
C1273     Br1280   1.930       .  S
C1274      C1275   1.412       .  A
C1275      C3148   1.405       .  A
C1275     Br1282   1.937       .  S
C1276      C1277   1.413       .  A
C1276      C3147   1.406       .  A
C1276     Br1281   1.921       .  S
C1277      C3150   1.417       .  A
C1278      C3149   1.413   1_554  A
C1278     Br3151   1.930   1_554  S
Br1279     C3150   1.925       .  S
C1283      C1284   1.414       .  A
C1283      C1288   1.407   1_655  A
C1283     Br1290   1.934       .  S
C1284      C1285   1.414       .  A
C1285      C1286   1.417   1_655  A
C1285     Br1292   1.931       .  S
C1286      C1287   1.415       .  A
C1286     Br1291   1.930       .  S
C1287      C1288   1.410       .  A
C1288     Br1289   1.928       .  S
C1293      C1294   1.415       .  A
C1293      C1298   1.406       .  A
C1293     Br1300   1.932       .  S
C1294      C1295   1.418       .  A
C1295      C1296   1.414       .  A
C1295     Br1302   1.932       .  S
C1296      C1297   1.408       .  A
C1296     Br1301   1.921       .  S
C1297      C1298   1.407       .  A
C1298     Br1299   1.930       .  S
C1303      C1304   1.404       .  A
C1303      C1308   1.412       .  A
C1303     Br1310   1.927       .  S
C1304      C1305   1.404   1_455  A
C1305      C1306   1.403       .  A
C1305     Br1312   1.928       .  S
C1306      C1307   1.415       .  A
C1306     Br1311   1.929       .  S
C1307      C1308   1.421   1_655  A
C1308     Br1309   1.933       .  S
C1313      C1314   1.419   1_655  A
C1313      C1318   1.414       .  A
C1313     Br1320   1.933   1_655  S
C1314      C1315   1.414   1_455  A
C1315      C1316   1.404       .  A
C1315     Br1322   1.941   1_655  S
C1316      C1317   1.421       .  A
C1316     Br1321   1.939       .  S
C1317      C1318   1.411       .  A
C1318     Br1319   1.930       .  S
C1323      C1324   1.412       .  A
C1323      C1328   1.412       .  A
C1323     Br1330   1.930       .  S
C1324      C1325   1.407       .  A
C1325      C1326   1.403       .  A
C1325     Br1332   1.926       .  S
C1326      C1327   1.412       .  A
C1326     Br1331   1.929       .  S
C1327      C1328   1.413       .  A
C1328     Br1329   1.929       .  S
C1333      C1334   1.414       .  A
C1333      C1338   1.403       .  A
C1333     Br1340   1.941       .  S
C1334      C1335   1.414       .  A
C1335      C1336   1.421       .  A
C1335     Br1342   1.929       .  S
C1336      C1337   1.420       .  A
C1336     Br1341   1.929       .  S
C1337      C1338   1.421       .  A
C1338     Br1339   1.943       .  S
C1343      C1344   1.415       .  A
C1343      C1348   1.393       .  A
C1343     Br1350   1.937       .  S
C1344      C1345   1.412       .  A
C1345      C1346   1.417       .  A
C1345     Br1352   1.926       .  S
C1346      C1347   1.414       .  A
C1346     Br1351   1.927       .  S
C1347      C1348   1.412       .  A
C1348     Br1349   1.944       .  S
C1353      C1354   1.418       .  A
C1353      C1358   1.404       .  A
C1353     Br1360   1.944       .  S
C1354      C1355   1.418       .  A
C1355      C1356   1.419       .  A
C1355     Br1362   1.930       .  S
C1356      C1357   1.413       .  A
C1356     Br1361   1.927       .  S
C1357      C1358   1.421       .  A
C1358     Br1359   1.945       .  S
C1363      C1364   1.410       .  A
C1363      C1368   1.405       .  A
C1363     Br1370   1.929       .  S
C1364      C1365   1.408       .  A
C1365      C1366   1.412       .  A
C1365     Br1372   1.931       .  S
C1366      C1367   1.415       .  A
C1366     Br1371   1.930       .  S
C1367      C1368   1.408       .  A
C1368     Br1369   1.929       .  S
C1373      C1374   1.404       .  A
C1373      C1378   1.413       .  A
C1373     Br1380   1.927       .  S
C1374      C1375   1.407       .  A
C1375      C1376   1.408       .  A
C1375     Br1382   1.937       .  S
C1376      C1377   1.426       .  A
C1376     Br1381   1.938       .  S
C1377      C1378   1.421       .  A
C1378     Br1379   1.930       .  S
C1383      C1384   1.412       .  A
C1383      C1388   1.411       .  A
C1383     Br1390   1.927       .  S
C1384      C1385   1.407       .  A
C1385      C1386   1.402       .  A
C1385     Br1392   1.934       .  S
C1386      C1387   1.409       .  A
C1386     Br1391   1.924       .  S
C1387      C1388   1.407       .  A
C1388     Br1389   1.928       .  S
C1393      C1398   1.406       .  A
C1393      C3266   1.405   1_455  A
C1393     Br1400   1.928       .  S
C1394      C2265   1.497       .  S
C1394      C1395   1.407   1_656  A
C1394      C3265   1.407   1_655  A
C1395      C1396   1.421       .  A
C1395     Br1402   1.924   1_455  S
C1396      C1397   1.421       .  A
C1396     Br1401   1.922       .  S
C1397      C3270   1.418   1_554  A
C1398      C3269   1.416       .  A
C1398     Br1399   1.926       .  S
C1403      C1404   1.432       .  A
C1403      C1408   1.408       .  A
C1403     Br1410   1.946       .  S
C1404      C1405   1.427       .  A
C1405      C1406   1.421       .  A
C1405     Br1412   1.935       .  S
C1406      C1407   1.414       .  A
C1406     Br1411   1.933       .  S
C1407      C1408   1.412       .  A
C1408     Br1409   1.945       .  S
C1413      C1414   1.409       .  A
C1413      C1418   1.412       .  A
C1413     Br1420   1.930       .  S
C1414      C1415   1.410       .  A
C1415      C1416   1.404       .  A
C1415     Br1422   1.934       .  S
C1416      C1417   1.413       .  A
C1416     Br1421   1.935       .  S
C1417      C1418   1.413       .  A
C1418     Br1419   1.930       .  S
C1423      C1424   1.412       .  A
C1423      C1428   1.405       .  A
C1423     Br1430   1.929       .  S
C1424      C1425   1.420       .  A
C1425      C1426   1.412       .  A
C1425     Br1432   1.932       .  S
C1426      C1427   1.407       .  A
C1426     Br1431   1.922       .  S
C1427      C1428   1.408       .  A
C1428     Br1429   1.926       .  S
C1433      C1434   1.412       .  A
C1433      C1438   1.404       .  A
C1433     Br1440   1.931       .  S
C1434      C1435   1.410       .  A
C1435      C1436   1.413       .  A
C1435     Br1442   1.931       .  S
C1436      C1437   1.417       .  A
C1436     Br1441   1.931       .  S
C1437      C1438   1.410       .  A
C1438     Br1439   1.934       .  S
C1443      C1444   1.406       .  A
C1443      C1448   1.402       .  A
C1443     Br1450   1.927       .  S
C1444      C1445   1.410   1_565  A
C1445      C1446   1.410       .  A
C1445     Br1452   1.929       .  S
C1446      C1447   1.408       .  A
C1446     Br1451   1.923       .  S
C1447      C1448   1.408   1_545  A
C1448     Br1449   1.927       .  S
C1453      C1454   1.406       .  A
C1453      C1458   1.406       .  A
C1453     Br1460   1.941       .  S
C1454      C1455   1.409       .  A
C1455      C1456   1.417       .  A
C1455     Br1462   1.932       .  S
C1456      C1457   1.427       .  A
C1456     Br1461   1.934       .  S
C1457      C1458   1.432       .  A
C1458     Br1459   1.944       .  S
C1463      C1464   1.424   1_565  A
C1463      C1468   1.418       .  A
C1463     Br1470   1.931   1_565  S
C1464      C1465   1.420   1_545  A
C1465      C1466   1.408       .  A
C1465     Br1472   1.936   1_565  S
C1466      C1467   1.409       .  A
C1466     Br1471   1.933       .  S
C1467      C1468   1.408       .  A
C1468     Br1469   1.927       .  S
C1473      C1474   1.414       .  A
C1473      C1478   1.402       .  A
C1473     Br1480   1.942       .  S
C1474      C1475   1.414       .  A
C1475      C1476   1.418       .  A
C1475     Br1482   1.929       .  S
C1476      C1477   1.416       .  A
C1476     Br1481   1.930       .  S
C1477      C1478   1.419       .  A
C1478     Br1479   1.943       .  S
C1483      C1484   1.403       .  A
C1483      C1488   1.402       .  A
C1483     Br1490   1.935       .  S
C1484      C1485   1.406       .  A
C1485      C1486   1.414       .  A
C1485     Br1492   1.927       .  S
C1486      C1487   1.418       .  A
C1486     Br1491   1.929       .  S
C1487      C1488   1.424       .  A
C1488     Br1489   1.933       .  S
C1493      C1494   1.407       .  A
C1493      C3370   1.408       .  A
C1493     Br1500   1.930       .  S
C1494      C1495   1.404       .  A
C1495      C3368   1.402       .  A
C1495     Br1502   1.934       .  S
C1496      C1497   1.411       .  A
C1496      C3367   1.404   1_554  A
C1496     Br1501   1.923       .  S
C1497      C1498   1.412       .  A
C1498      C3365   1.412   1_554  A
C1498     Br1499   1.928       .  S
C1503      C1504   1.409       .  A
C1503      C1508   1.406       .  A
C1503     Br1510   1.927       .  S
C1504      C1505   1.412       .  A
C1505      C1506   1.408       .  A
C1505     Br1512   1.930       .  S
C1506      C1507   1.406       .  A
C1506     Br1511   1.927       .  S
C1507      C2134   1.471       .  S
C1507      C1508   1.408       .  A
C1508     Br3381   1.929       .  S
Br1509     C3380   1.931   1_554  S
C1513      C1514   1.407       .  A
C1513      C1518   1.409       .  A
C1513     Br1520   1.924       .  S
C1514      C1515   1.411       .  A
C1515      C1516   1.407       .  A
C1515     Br1522   1.927       .  S
C1516      C1517   1.407       .  A
C1516     Br1521   1.929       .  S
C1517      C1518   1.412       .  A
C1518     Br1519   1.931       .  S
C1523      C1524   1.419       .  A
C1523      C1528   1.400       .  A
C1523     Br1530   1.943       .  S
C1524      C1525   1.416       .  A
C1525      C1526   1.414       .  A
C1525     Br1532   1.929       .  S
C1526      C1527   1.411       .  A
C1526     Br1531   1.930       .  S
C1527      C1528   1.412       .  A
C1528     Br1529   1.941       .  S
C1533      C1534   1.407       .  A
C1533      C1538   1.404   1_565  A
C1533     Br1540   1.941       .  S
C1534      C1535   1.409       .  A
C1535      C1536   1.417   1_565  A
C1535     Br1542   1.929       .  S
C1536      C1537   1.420       .  A
C1536     Br1541   1.929       .  S
C1537      C1538   1.425       .  A
C1538     Br1539   1.937       .  S
C1543      C1548   1.418       .  A
C1543      C3416   1.407   1_554  A
C1543     Br1550   1.929   1_554  S
C1544      C1545   1.402       .  A
C1544      C3415   1.403       .  A
C1545      C3418   1.403       .  A
C1545     Br1552   1.937       .  S
C1546      C1547   1.428       .  A
C1546      C3417   1.404   1_554  A
C1546     Br1551   1.937       .  S
C1547      C1548   1.425       .  A
C1548     Br1549   1.932       .  S
C1553      C1554   1.404       .  A
C1553      C1558   1.406       .  A
C1553     Br1560   1.934       .  S
C1554      C1555   1.410       .  A
C1555      C1556   1.408       .  A
C1555     Br1562   1.933       .  S
C1556      C1557   1.414       .  A
C1556     Br1561   1.931       .  S
C1557      C1558   1.417       .  A
C1558     Br1559   1.924       .  S
C1563      C1564   1.413       .  A
C1563      C1568   1.397       .  A
C1563     Br1570   1.927       .  S
C1564      C1565   1.414       .  A
C1565      C1566   1.409       .  A
C1565     Br1572   1.928       .  S
C1566      C1567   1.405       .  A
C1566     Br1571   1.928       .  S
C1567      C1568   1.403       .  A
C1568     Br1569   1.928       .  S
C1573      C1574   1.409       .  A
C1573      C1578   1.417       .  A
C1573     Br1580   1.925       .  S
C1574      C1575   1.408       .  A
C1575      C1576   1.405       .  A
C1575     Br1582   1.931       .  S
C1576      C1577   1.414       .  A
C1576     Br1581   1.933       .  S
C1577      C1578   1.421       .  A
C1578     Br1579   1.931       .  S
C1583      C1584   1.418       .  A
C1583      C1588   1.412       .  A
C1583     Br1590   1.934       .  S
C1584      C1585   1.411       .  A
C1585      C1586   1.403       .  A
C1585     Br1592   1.935       .  S
C1586      C1587   1.411       .  A
C1586     Br1591   1.930       .  S
C1587      C1588   1.407       .  A
C1588     Br1589   1.925       .  S
C1593      C1594   1.407       .  A
C1593      C1598   1.402       .  A
C1593     Br1600   1.927       .  S
C1594      C1595   1.405       .  A
C1595      C1596   1.407       .  A
C1595     Br1602   1.919       .  S
C1596      C1597   1.414       .  A
C1596     Br1601   1.932       .  S
C1597      C1598   1.413       .  A
C1598     Br1599   1.935       .  S
C1603      C1604   1.424       .  A
C1603      C1608   1.400       .  A
C1603     Br1610   1.939       .  S
C1604      C1605   1.426       .  A
C1605      C1606   1.410       .  A
C1605     Br1612   1.933       .  S
C1606      C1607   1.400       .  A
C1606     Br1611   1.931       .  S
C1607      C1608   1.400       .  A
C1608     Br1609   1.933       .  S
C1613      C1618   1.408       .  A
C1613      C3486   1.410       .  A
C1613     Br1620   1.935       .  S
C1614      C1615   1.410       .  A
C1614      C3485   1.409       .  A
C1615      C1616   1.413       .  A
C1615     Br1622   1.926       .  S
C1616      C3489   1.418       .  A
C1616     Br1621   1.933       .  S
C1617      C1618   1.418   1_554  A
C1617      C3488   1.419       .  A
C1618     Br1619   1.934   1_545  S
C1623      C1624   1.415       .  A
C1623      C1628   1.418       .  A
C1623     Br1630   1.928       .  S
C1624      C1625   1.412       .  A
C1625      C1626   1.405       .  A
C1625     Br3504   1.934       .  S
C1626      C1627   1.409       .  A
C1626     Br3503   1.925       .  S
C1627      C1628   1.412       .  A
C1628     Br1629   1.929       .  S
Br1631     C3498   1.926       .  S
Br1632     C3497   1.928       .  S
C1633      C1638   1.412       .  A
C1633      C3506   1.404       .  A
C1633     Br1640   1.925       .  S
C1634      C1635   1.406       .  A
C1634      C3505   1.406       .  A
C1635      C1636   1.408       .  A
C1635     Br1642   1.934       .  S
C1636      C1637   1.425       .  A
C1636     Br1641   1.938       .  S
C1637      C1979   1.511   1_554  S
C1637      C3510   1.427       .  A
C1638      C3509   1.425       .  A
C1638     Br1639   1.935       .  S
C1643      C1644   1.413       .  A
C1643      C1648   1.406       .  A
C1643     Br1650   1.931       .  S
C1644      C1645   1.410       .  A
C1645      C1646   1.399       .  A
C1645     Br1652   1.926       .  S
C1646      C1647   1.407       .  A
C1646     Br1651   1.935       .  S
C1647      C1648   1.410       .  A
C1648     Br1649   1.929       .  S
C1653      C1654   1.424       .  A
C1653      C1658   1.401       .  A
C1653     Br1660   1.946       .  S
C1654      C1655   1.422       .  A
C1655      C1656   1.413       .  A
C1655     Br1662   1.933       .  S
C1656      C1657   1.409       .  A
C1656     Br1661   1.933       .  S
C1657      C1658   1.411       .  A
C1658     Br1659   1.936       .  S
C1663      C1664   1.413       .  A
C1663      C1668   1.415       .  A
C1663     Br1670   1.928       .  S
C1664      C1665   1.406       .  A
C1665      C1666   1.405       .  A
C1665     Br1672   1.920       .  S
C1666      C1667   1.414       .  A
C1666     Br1671   1.935       .  S
C1667      C1668   1.411       .  A
C1668     Br1669   1.929       .  S
C1673      C1674   1.405       .  A
C1673      C1678   1.414       .  A
C1673     Br1680   1.929       .  S
C1674      C1675   1.407       .  A
C1675      C1676   1.404       .  A
C1675     Br1682   1.932       .  S
C1676      C1677   1.420       .  A
C1676     Br1681   1.939       .  S
C1677      C1678   1.423       .  A
C1678     Br1679   1.931       .  S
C1683      C1684   1.415       .  A
C1683      C3560   1.406       .  A
C1683     Br1690   1.933       .  S
C1684      C1685   1.408       .  A
C1685      C3558   1.398       .  A
C1685     Br1692   1.939       .  S
C1686      C1687   1.408       .  A
C1686      C3557   1.393   1_554  A
C1686     Br1691   1.921       .  S
C1687      C1688   1.406       .  A
C1688      C3555   1.406   1_554  A
C1688     Br1689   1.928       .  S
C1693      C1694   1.415       .  A
C1693      C1698   1.401       .  A
C1693     Br1700   1.938       .  S
C1694      C1695   1.417       .  A
C1695      C1696   1.408       .  A
C1695     Br1702   1.933       .  S
C1696      C1697   1.409       .  A
C1696     Br1701   1.932       .  S
C1697      C1698   1.415       .  A
C1698     Br1699   1.932       .  S
C1703      C1704   1.410       .  A
C1703      C1708   1.405       .  A
C1703     Br1710   1.932       .  S
C1704      C1705   1.406       .  A
C1705      C1706   1.409       .  A
C1705     Br1712   1.924       .  S
C1706      C1707   1.415       .  A
C1706     Br1711   1.933       .  S
C1707      C1708   1.415       .  A
C1708     Br1709   1.934       .  S
C1713      C1714   1.411       .  A
C1713      C1718   1.407       .  A
C1713     Br1720   1.936       .  S
C1714      C1715   1.409       .  A
C1715      C1716   1.407       .  A
C1715     Br1722   1.932       .  S
C1716      C1717   1.413       .  A
C1716     Br1721   1.922       .  S
C1717      C1718   1.414       .  A
C1718     Br1719   1.922       .  S
C1723      C1724   1.415       .  A
C1723      C3600   1.403   1_554  A
C1723     Br1730   1.938       .  S
C1724      C1725   1.417       .  A
C1725      C1726   1.408       .  A
C1725     Br1732   1.930       .  S
C1726      C3599   1.406   1_554  A
C1726     Br1731   1.933   1_554  S
C1727      C1728   1.410       .  A
C1727      C3598   1.408       .  A
C1728      C3595   1.406       .  A
C1728     Br1729   1.926       .  S
C1733      C1734   1.408       .  A
C1733      C1738   1.408       .  A
C1733     Br1740   1.930       .  S
C1734      C2002   1.471   1_554  S
C1734      C1735   1.408       .  A
C1735      C1736   1.407       .  A
C1735     Br3614   1.931   1_554  S
C1736      C1737   1.410       .  A
C1736     Br1741   1.929       .  S
C1737      C1738   1.410       .  A
C1738     Br1739   1.931       .  S
Br1742     C3607   1.929       .  S
C1743      C1744   1.410       .  A
C1743      C1748   1.414       .  A
C1743     Br1750   1.928       .  S
C1744      C1745   1.409       .  A
C1745      C1746   1.407       .  A
C1745     Br1752   1.914       .  S
C1746      C1747   1.408       .  A
C1746     Br1751   1.935       .  S
C1747      C1748   1.414       .  A
C1748     Br1749   1.927       .  S
C1753      C1754   1.424       .  A
C1753      C1758   1.417       .  A
C1753     Br1760   1.931       .  S
C1754      C1755   1.427       .  A
C1755      C1756   1.405       .  A
C1755     Br1762   1.941       .  S
C1756      C1757   1.405       .  A
C1756     Br1761   1.937       .  S
C1757      C1758   1.407       .  A
C1758     Br1759   1.928       .  S
C1763      C1764   1.406       .  A
C1763      C1768   1.411       .  A
C1763     Br1770   1.927       .  S
C1764      C1765   1.408       .  A
C1765      C1766   1.404       .  A
C1765     Br1772   1.931       .  S
C1766      C1767   1.411       .  A
C1766     Br1771   1.929       .  S
C1767      C1768   1.413       .  A
C1768     Br1769   1.925       .  S
C1773      C1774   1.412       .  A
C1773      C1778   1.409       .  A
C1773     Br1780   1.929       .  S
C1774      C1775   1.413       .  A
C1775      C1776   1.405       .  A
C1775     Br1782   1.934       .  S
C1776      C1777   1.408       .  A
C1776     Br1781   1.932       .  S
C1777      C1778   1.408       .  A
C1778     Br1779   1.930       .  S
C1783      C1784   1.424       .  A
C1783      C1788   1.411       .  A
C1783     Br1790   1.934       .  S
C1784      C1785   1.427       .  A
C1785      C1786   1.408       .  A
C1785     Br1792   1.936       .  S
C1786      C1787   1.400       .  A
C1786     Br1791   1.929       .  S
C1787      C1788   1.407       .  A
C1788     Br1789   1.935       .  S
C1793      C1794   1.418       .  A
C1793      C1798   1.412       .  A
C1793     Br1800   1.929       .  S
C1794      C1795   1.415       .  A
C1795      C1796   1.398       .  A
C1795     Br1802   1.932       .  S
C1796      C1797   1.404       .  A
C1796     Br1801   1.926       .  S
C1797      C1798   1.406       .  A
C1798     Br1799   1.929       .  S
C1803      C1804   1.425       .  A
C1803      C1808   1.410       .  A
C1803     Br1810   1.939       .  S
C1804      C1805   1.423       .  A
C1805      C1806   1.419       .  A
C1805     Br1812   1.931       .  S
C1806      C1807   1.409       .  A
C1806     Br1811   1.930       .  S
C1807      C1808   1.410       .  A
C1808     Br1809   1.937       .  S
C1813      C1814   1.416       .  A
C1813      C1818   1.408   1_655  A
C1813     Br1820   1.933       .  S
C1814      C1815   1.415   1_655  A
C1815      C1816   1.415       .  A
C1815     Br1822   1.931   1_455  S
C1816      C1817   1.410       .  A
C1816     Br1821   1.920       .  S
C1817      C1818   1.409       .  A
C1818     Br1819   1.932       .  S
C1823      C1824   1.418       .  A
C1823      C1828   1.413       .  A
C1823     Br1830   1.933       .  S
C1824      C1825   1.418       .  A
C1825      C1826   1.406       .  A
C1825     Br1832   1.939       .  S
C1826      C1827   1.414       .  A
C1826     Br1831   1.937       .  S
C1827      C1828   1.412       .  A
C1828     Br1829   1.932       .  S
C1833      C1834   1.419       .  A
C1833      C1838   1.414       .  A
C1833     Br1840   1.932       .  S
C1834      C1835   1.419       .  A
C1835      C1836   1.404       .  A
C1835     Br1842   1.941       .  S
C1836      C1837   1.412       .  A
C1836     Br1841   1.938       .  S
C1837      C1838   1.411       .  A
C1838     Br1839   1.930       .  S
C1843      C1844   1.413       .  A
C1843      C1848   1.416       .  A
C1843     Br1850   1.928       .  S
C1844      C1845   1.408       .  A
C1845      C1846   1.402       .  A
C1845     Br1852   1.924       .  S
C1846      C1847   1.406       .  A
C1846     Br1851   1.927       .  S
C1847      C1848   1.411       .  A
C1848     Br1849   1.928       .  S
C1853      C1854   1.409       .  A
C1853      C1858   1.400       .  A
C1853     Br1860   1.925       .  S
C1854      C1855   1.407       .  A
C1855      C1856   1.407       .  A
C1855     Br1862   1.926       .  S
C1856      C1857   1.412       .  A
C1856     Br1861   1.932       .  S
C1857      C1858   1.409       .  A
C1858     Br1859   1.936       .  S
C1863      C1864   1.404       .  A
C1863      C1868   1.411       .  A
C1863     Br1870   1.929       .  S
C1864      C1865   1.406       .  A
C1865      C1866   1.403       .  A
C1865     Br1872   1.927       .  S
C1866      C1867   1.416       .  A
C1866     Br1871   1.936       .  S
C1867      C1868   1.421       .  A
C1868     Br1869   1.931       .  S
Fe1873     O1889   2.071       .  S
Fe1873     O1879   2.064       .  S
Fe1873     O1886   2.058       .  S
Fe1873     O1878   2.068       .  S
Fe1873     O1884   1.971       .  S
Fe1874     O1877   2.078       .  S
Fe1874     O1881   2.064       .  S
Fe1874     O1885   2.079       .  S
Fe1874     O1890   2.078       .  S
Fe1874     O1884   1.974       .  S
Fe1875     O1893   2.063       .  S
Fe1875     O1880   2.074       .  S
Fe1875     O1887   2.083       .  S
Fe1875     O1876   2.044       .  S
Fe1875     O1884   1.964       .  S
O1876      C1883   1.270       .  A
O1877      C1891   1.271       .  A
O1878      C1883   1.273       .  A
O1879      C1882   1.266       .  A
O1880      C1892   1.270       .  A
O1881      C1894   1.274       .  A
C1882      O1887   1.267       .  A
C1882      C3689   1.489       .  S
C1883      C3739   1.470       .  S
O1885      C1888   1.267       .  A
O1886      C1888   1.263       .  A
C1888      C3699   1.491       .  S
O1889      C1894   1.275       .  A
O1890      C1892   1.272       .  A
C1891      O1893   1.267       .  A
C1891      C3706   1.488       .  S
C1892      C3716   1.479       .  S
C1894      C3726   1.465       .  S
Fe1895     O1911   2.061       .  S
Fe1895     O1901   2.047       .  S
Fe1895     O1908   2.041       .  S
Fe1895     O1900   2.077       .  S
Fe1895     O1906   1.968       .  S
Fe1896     O1899   2.070       .  S
Fe1896     O1903   2.086       .  S
Fe1896     O1907   2.082       .  S
Fe1896     O1912   2.069       .  S
Fe1896     O1906   1.969       .  S
Fe1897     O1915   2.084       .  S
Fe1897     O1902   2.054       .  S
Fe1897     O1909   2.070       .  S
Fe1897     O1898   2.087       .  S
Fe1897     O1906   1.967       .  S
O1898      C1905   1.280       .  A
O1899      C1913   1.270       .  A
O1900      C1905   1.276       .  A
O1901      C1904   1.260       .  A
O1902      C1914   1.264       .  A
O1903      C1916   1.277       .  A
C1904      O1909   1.262       .  A
C1904      C3639   1.478       .  S
C1905      C3659   1.482       .  S
O1907      C1910   1.266       .  A
O1908      C1910   1.259       .  A
C1910      C3696   1.494       .  S
O1911      C1916   1.274       .  A
O1912      C1914   1.270       .  A
C1913      O1915   1.274       .  A
C1913      C3676   1.500       .  S
C1914      C3666   1.477       .  S
C1916      C3649   1.471       .  S
Fe1917     O1933   2.086       .  S
Fe1917     O1923   2.053       .  S
Fe1917     O1930   2.052       .  S
Fe1917     O1922   2.080       .  S
Fe1917     O1928   1.959       .  S
Fe1918     O1921   2.080       .  S
Fe1918     O1925   2.062       .  S
Fe1918     O1929   2.086       .  S
Fe1918     O1934   2.074       .  S
Fe1918     O1928   1.961       .  S
Fe1919     O1937   2.057       .  S
Fe1919     O1924   2.067       .  S
Fe1919     O1931   2.071       .  S
Fe1919     O1920   2.055       .  S
Fe1919     O1928   1.966       .  S
O1920      C1927   1.271       .  A
O1921      C1935   1.272       .  A
O1922      C1927   1.278       .  A
O1923      C1926   1.261       .  A
O1924      C1936   1.268       .  A
O1925      C1938   1.275       .  A
C1926      O1931   1.265       .  A
C1926      C3616   1.481       .  S
C1927      C3589   1.464       .  S
O1929      C1932   1.267       .  A
O1930      C1932   1.263       .  A
C1932      C3576   1.486       .  S
O1933      C1938   1.278       .  A
O1934      C1936   1.269       .  A
C1935      O1937   1.268       .  A
C1935      C3609   1.468       .  S
C1936      C3626   1.497       .  S
C1938      C3596   1.483       .  S
Fe1939     O1955   2.063       .  S
Fe1939     O1945   2.052       .  S
Fe1939     O1952   2.038       .  S
Fe1939     O1944   2.068       .  S
Fe1939     O1950   1.966       .  S
Fe1940     O1943   2.075       .  S
Fe1940     O1947   2.067       .  S
Fe1940     O1951   2.071       .  S
Fe1940     O1956   2.057       .  S
Fe1940     O1950   1.974       .  S
Fe1941     O1959   2.066       .  S
Fe1941     O1946   2.081       .  S
Fe1941     O1953   2.072       .  S
Fe1941     O1942   2.064       .  S
Fe1941     O1950   1.960       .  S
O1942      C1949   1.272       .  A
O1943      C1957   1.268       .  A
O1944      C1949   1.273       .  A
O1945      C1948   1.261       .  A
O1946      C1958   1.277       .  A
O1947      C1960   1.277       .  A
C1948      O1953   1.265       .  A
C1948      C3536   1.475       .  S
C1949      C3566   1.488       .  S
O1951      C1954   1.262       .  A
O1952      C1954   1.258       .  A
C1954      C3619   1.487       .  S
O1955      C1960   1.277       .  A
O1956      C1958   1.269       .  A
C1957      O1959   1.265       .  A
C1957      C3549   1.500       .  S
C1958      C3669   1.468       .  S
C1960      C3559   1.463       .  S
Fe1961     O1967   2.057       .  S
Fe1961     O1974   2.058       .  S
Fe1961     O1966   2.050       .  S
Fe1961     O1972   1.980       .  S
Fe1962     O1973   2.075       .  S
Fe1962     O1978   2.082       .  S
Fe1962     O1972   1.979       .  S
Fe1963     O1981   2.088       .  S
Fe1963     O1968   2.074       .  S
Fe1963     O1975   2.089       .  S
Fe1963     O1964   2.075       .  S
Fe1963     O1972   1.968       .  S
O1964      C1971   1.275       .  A
O1966      C1971   1.267       .  A
O1967      C1970   1.265       .  A
O1968      C1980   1.274       .  A
O1969      C1982   1.277       .  A
C1970      O1975   1.270       .  A
C1970      C3486   1.488       .  S
C1971      C3526   1.486       .  S
O1973      C1976   1.264       .  A
O1974      C1976   1.263       .  A
C1976      C3496   1.479       .  S
O1977      C1982   1.277       .  A
O1978      C1980   1.276       .  A
C1979      O1981   1.270       .  A
C1980      C3719   1.481       .  S
C1982      C3516   1.466       .  S
Fe1983     O1999   2.076       .  S
Fe1983     O1989   2.057       .  S
Fe1983     O1996   2.073       .  S
Fe1983     O1988   2.069       .  S
Fe1983     O1994   1.967       .  S
Fe1984     O1987   2.057       .  S
Fe1984     O1991   2.066       .  S
Fe1984     O1995   2.063       .  S
Fe1984     O2000   2.066       .  S
Fe1984     O1994   1.965       .  S
Fe1985     O2003   2.089       .  S
Fe1985     O1997   2.093       .  S
Fe1985     O1994   1.959       .  S
O1986      C1993   1.267       .  A
O1987      C2001   1.263       .  A
O1989      C1992   1.265       .  A
O1991      C2004   1.277       .  A
C1992      O1997   1.272       .  A
C1992      C3446   1.487       .  S
C1993      C3476   1.476       .  S
O1995      C1998   1.261       .  A
O1996      C1998   1.265       .  A
C1998      C3499   1.483       .  S
O1999      C2004   1.277       .  A
O2000      C2002   1.273       .  A
C2001      O2003   1.271       .  A
C2001      C3456   1.501       .  S
C2004      C3466   1.479       .  S
Fe2005     O2021   2.035       .  S
Fe2005     O2011   2.060       .  S
Fe2005     O2018   2.089       .  S
Fe2005     O2010   2.029       .  S
Fe2005     O2016   1.969       .  S
Fe2006     O2009   2.073       .  S
Fe2006     O2013   2.084       .  S
Fe2006     O2017   2.070       .  S
Fe2006     O2022   2.051       .  S
Fe2006     O2016   1.984       .  S
Fe2007     O2025   2.078       .  S
Fe2007     O2012   2.081       .  S
Fe2007     O2019   2.096       .  S
Fe2007     O2008   2.089       .  S
Fe2007     O2016   1.982       .  S
O2008      C2015   1.268       .  A
O2009      C2023   1.271       .  A
O2010      C2015   1.256       .  A
O2011      C2014   1.272       .  A
O2012      C2024   1.273       .  A
O2013      C2026   1.267       .  A
C2014      O2019   1.278       .  A
C2014      C3416   1.481       .  S
C2015      C3409   1.494       .  S
O2017      C2020   1.271       .  A
O2018      C2020   1.274       .  A
C2020      C3426   1.484       .  S
O2021      C2026   1.260       .  A
O2022      C2024   1.267       .  A
C2023      O2025   1.272       .  A
C2023      C3449   1.482       .  S
C2024      C3436   1.481       .  S
C2026      C3396   1.494       .  S
Fe2027     O2043   2.045       .  S
Fe2027     O2033   2.080       .  S
Fe2027     O2040   2.081       .  S
Fe2027     O2032   2.038       .  S
Fe2027     O2038   1.959       .  S
Fe2028     O2031   2.060       .  S
Fe2028     O2035   2.095       .  S
Fe2028     O2039   2.052       .  S
Fe2028     O2044   2.073       .  S
Fe2028     O2038   1.972       .  S
Fe2029     O2047   2.065       .  S
Fe2029     O2034   2.066       .  S
Fe2029     O2041   2.073       .  S
Fe2029     O2030   2.080       .  S
Fe2029     O2038   1.981       .  S
O2030      C2037   1.266       .  A
O2031      C2045   1.267       .  A
O2032      C2037   1.262       .  A
O2033      C2036   1.275       .  A
O2034      C2046   1.271       .  A
O2035      C2048   1.270       .  A
C2036      O2041   1.273       .  A
C2036      C3356   1.481       .  S
C2037      C3406   1.475       .  S
O2039      C2042   1.269       .  A
O2040      C2042   1.272       .  A
C2042      C3366   1.476       .  S
O2043      C2048   1.264       .  A
O2044      C2046   1.272       .  A
C2045      O2047   1.269       .  A
C2045      C3389   1.477       .  S
C2046      C3376   1.469       .  S
C2048      C3346   1.499       .  S
Fe2049     O2065   2.059       .  S
Fe2049     O2055   2.083       .  S
Fe2049     O2062   2.069       .  S
Fe2049     O2054   2.052       .  S
Fe2049     O2060   1.953       .  S
Fe2050     O2053   2.076       .  S
Fe2050     O2057   2.087       .  S
Fe2050     O2061   2.061       .  S
Fe2050     O2066   2.076       .  S
Fe2050     O2060   1.952       .  S
Fe2051     O2069   2.065       .  S
Fe2051     O2056   2.070       .  S
Fe2051     O2063   2.050       .  S
Fe2051     O2052   2.082       .  S
Fe2051     O2060   1.961       .  S
O2052      C2059   1.266       .  A
O2053      C2067   1.272       .  A
O2054      C2059   1.261       .  A
O2055      C2058   1.275       .  A
O2056      C2068   1.273       .  A
O2057      C2070   1.269       .  A
C2058      O2063   1.271       .  A
C2058      C3529   1.469       .  S
C2059      C3329   1.506       .  S
O2061      C2064   1.273       .  A
O2062      C2064   1.272       .  A
C2064      C3519   1.480       .  S
O2065      C2070   1.266       .  A
O2066      C2068   1.271       .  A
C2067      O2069   1.269       .  A
C2067      C3336   1.490       .  S
C2068      C3319   1.473       .  S
C2070      C3709   1.481       .  S
Fe2071     O2087   2.048       .  S
Fe2071     O2077   2.080       .  S
Fe2071     O2084   2.067       .  S
Fe2071     O2076   2.043       .  S
Fe2071     O2082   1.945       .  S
Fe2072     O2075   2.073       .  S
Fe2072     O2079   2.090       .  S
Fe2072     O2083   2.055       .  S
Fe2072     O2088   2.079       .  S
Fe2072     O2082   1.954       .  S
Fe2073     O2091   2.072       .  S
Fe2073     O2078   2.065       .  S
Fe2073     O2085   2.037       .  S
Fe2073     O2074   2.092       .  S
Fe2073     O2082   1.962       .  S
O2074      C2081   1.267       .  A
O2075      C2089   1.269       .  A
O2076      C2081   1.259       .  A
O2077      C2080   1.275       .  A
O2078      C2090   1.273       .  A
O2079      C2092   1.271       .  A
C2080      O2085   1.269       .  A
C2080      C3479   1.459       .  S
C2081      C3326   1.496       .  S
O2083      C2086   1.270       .  A
O2084      C2086   1.270       .  A
C2086      C3469   1.468       .  S
O2087      C2092   1.265       .  A
O2088      C2090   1.276       .  A
C2089      O2091   1.269       .  A
C2089      C3309   1.487       .  S
C2090      C3439   1.468       .  S
C2092      C3629   1.482       .  S
Fe2093     O2109   2.056       .  S
Fe2093     O2106   2.070       .  S
Fe2093     O2098   2.052       .  S
Fe2093     O2104   1.952       .  S
Fe2094     O2097   2.070       .  S
Fe2094     O2101   2.105       .  S
Fe2094     O2105   2.060       .  S
Fe2094     O2110   2.086       .  S
Fe2094     O2104   1.955       .  S
Fe2095     O2113   2.066       .  S
Fe2095     O2100   2.072       .  S
Fe2095     O2096   2.090       .  S
Fe2095     O2104   1.967       .  S
O2096      C2103   1.266       .  A
O2097      C2111   1.269       .  A
O2098      C2103   1.261       .  A
O2099      C2102   1.278       .  A
O2100      C2112   1.276       .  A
O2101      C2114   1.273       .  A
C2102      O2107   1.272       .  A
C2102      C3286   1.463       .  S
C2103      C3279   1.502       .  S
O2105      C2108   1.271       .  A
O2106      C2108   1.271       .  A
C2108      C3296   1.483       .  S
O2109      C2114   1.266       .  A
O2110      C2112   1.276       .  A
C2111      O2113   1.266       .  A
C2111      C3489   1.488   1_565  S
C2112      C3316   1.476       .  S
C2114      C3269   1.501       .  S
Fe2115     O2131   2.030       .  S
Fe2115     O2121   2.090       .  S
Fe2115     O2128   2.087       .  S
Fe2115     O2120   2.031       .  S
Fe2115     O2126   1.946       .  S
Fe2116     O2119   2.072       .  S
Fe2116     O2123   2.115       .  S
Fe2116     O2132   2.077       .  S
Fe2116     O2126   1.968       .  S
Fe2117     O2135   2.076       .  S
Fe2117     O2122   2.066       .  S
Fe2117     O2129   2.063       .  S
Fe2117     O2118   2.103       .  S
Fe2117     O2126   1.973       .  S
O2118      C2125   1.270       .  A
O2119      C2133   1.273       .  A
O2120      C2125   1.254       .  A
O2121      C2124   1.277       .  A
O2122      C2134   1.270       .  A
O2123      C2136   1.273       .  A
C2124      O2129   1.270       .  A
C2124      C3246   1.483       .  S
C2125      C3276   1.517       .  S
O2127      C2130   1.270       .  A
C2130      C3256   1.473       .  S
O2131      C2136   1.260       .  A
O2132      C2134   1.272       .  A
C2133      O2135   1.273       .  A
C2133      C3239   1.483       .  S
C2136      C3229   1.499       .  S
Fe2137     O2153   2.081       .  S
Fe2137     O2143   2.085       .  S
Fe2137     O2150   2.072       .  S
Fe2137     O2142   2.088       .  S
Fe2137     O2148   1.934       .  S
Fe2138     O2141   2.041       .  S
Fe2138     O2145   2.092       .  S
Fe2138     O2149   2.080       .  S
Fe2138     O2154   2.106       .  S
Fe2138     O2148   1.948       .  S
Fe2139     O2157   2.105       .  S
Fe2139     O2144   2.034       .  S
Fe2139     O2151   2.064       .  S
Fe2139     O2140   2.077       .  S
Fe2139     O2148   1.942       .  S
O2140      C2147   1.268       .  A
O2141      C2155   1.262       .  A
O2142      C2147   1.275       .  A
O2143      C2146   1.273       .  A
O2144      C2156   1.264       .  A
O2145      C2158   1.277       .  A
C2146      O2151   1.271       .  A
C2146      C3386   1.478       .  S
C2147      C3249   1.503       .  S
O2149      C2152   1.270       .  A
O2150      C2152   1.269       .  A
C2152      C3196   1.489       .  S
O2153      C2158   1.279       .  A
O2154      C2156   1.276       .  A
C2155      O2157   1.272       .  A
C2155      C3206   1.500       .  S
C2156      C3219   1.478       .  S
C2158      C3259   1.486       .  S
Fe2159     O2175   2.084       .  S
Fe2159     O2165   2.060       .  S
Fe2159     O2172   2.067       .  S
Fe2159     O2164   2.079       .  S
Fe2159     O2170   1.960       .  S
Fe2160     O2163   2.064       .  S
Fe2160     O2167   2.051       .  S
Fe2160     O2171   2.068       .  S
Fe2160     O2176   2.056       .  S
Fe2160     O2170   1.962       .  S
Fe2161     O2179   2.062       .  S
Fe2161     O2166   2.071       .  S
Fe2161     O2173   2.069       .  S
Fe2161     O2162   2.042       .  S
Fe2161     O2170   1.962       .  S
O2162      C2169   1.271       .  A
O2163      C2177   1.269       .  A
O2164      C2169   1.277       .  A
O2165      C2168   1.265       .  A
O2166      C2178   1.270       .  A
O2167      C2180   1.270       .  A
C2168      O2173   1.264       .  A
C2168      C3339   1.479       .  S
C2169      C3289   1.468       .  S
O2171      C2174   1.264       .  A
O2172      C2174   1.265       .  A
C2174      C3199   1.488       .  S
O2175      C2180   1.277       .  A
O2176      C2178   1.266       .  A
C2177      O2179   1.266       .  A
C2177      C3186   1.490       .  S
C2178      C3176   1.464       .  S
C2180      C3299   1.468       .  S
Fe2181     O2197   2.096       .  S
Fe2181     O2187   2.060       .  S
Fe2181     O2194   2.056       .  S
Fe2181     O2186   2.097       .  S
Fe2181     O2192   1.961       .  S
Fe2182     O2185   2.063       .  S
Fe2182     O2189   2.057       .  S
Fe2182     O2193   2.067       .  S
Fe2182     O2198   2.063       .  S
Fe2182     O2192   1.971       .  S
Fe2183     O2201   2.076       .  S
Fe2183     O2188   2.077       .  S
Fe2183     O2195   2.082       .  S
Fe2183     O2184   2.059       .  S
Fe2183     O2192   1.960       .  S
O2184      C2191   1.274       .  A
O2185      C2199   1.267       .  A
O2186      C2191   1.280       .  A
O2187      C2190   1.264       .  A
O2188      C2200   1.272       .  A
O2189      C2202   1.272       .  A
C2190      O2195   1.267       .  A
C2190      C3116   1.489       .  S
C2191      C3146   1.484       .  S
O2193      C2196   1.264       .  A
O2194      C2196   1.262       .  A
C2196      C3156   1.484       .  S
O2197      C2202   1.280       .  A
O2198      C2200   1.269       .  A
C2199      O2201   1.270       .  A
C2199      C3166   1.491       .  S
C2200      C3129   1.472       .  S
C2202      C3139   1.475       .  S
Fe2203     O2219   2.061       .  S
Fe2203     O2209   2.086       .  S
Fe2203     O2216   2.069       .  S
Fe2203     O2208   2.067       .  S
Fe2203     O2214   1.938       .  S
Fe2204     O2207   2.054       .  S
Fe2204     O2211   2.090       .  S
Fe2204     O2215   2.075       .  S
Fe2204     O2220   2.097       .  S
Fe2204     O2214   1.950       .  S
Fe2205     O2223   2.098       .  S
Fe2205     O2210   2.036       .  S
Fe2205     O2217   2.057       .  S
Fe2205     O2206   2.085       .  S
Fe2205     O2214   1.940       .  S
O2206      C2213   1.270       .  A
O2207      C2221   1.267       .  A
O2208      C2213   1.269       .  A
O2209      C2212   1.273       .  A
O2210      C2222   1.264       .  A
O2211      C2224   1.277       .  A
C2212      O2217   1.268       .  A
C2212      C3089   1.474       .  S
C2213      C3109   1.495       .  S
O2215      C2218   1.269       .  A
O2216      C2218   1.269       .  A
C2218      C3159   1.485       .  S
O2219      C2224   1.275       .  A
O2220      C2222   1.273       .  A
C2221      O2223   1.271       .  A
C2221      C3226   1.496       .  S
C2222      C3216   1.475       .  S
C2224      C3096   1.478       .  S
Fe2225     O2241   2.088       .  S
Fe2225     O2231   2.052       .  S
Fe2225     O2238   2.046       .  S
Fe2225     O2230   2.077       .  S
Fe2225     O2236   1.958       .  S
Fe2226     O2229   2.064       .  S
Fe2226     O2233   2.055       .  S
Fe2226     O2237   2.083       .  S
Fe2226     O2242   2.065       .  S
Fe2226     O2236   1.968       .  S
Fe2227     O2245   2.069       .  S
Fe2227     O2239   2.077       .  S
Fe2227     O2236   1.958       .  S
O2228      C2235   1.270       .  A
O2229      C2243   1.268       .  A
O2231      C2234   1.264       .  A
O2233      C2246   1.272       .  A
C2234      O2239   1.267       .  A
C2234      C3036   1.478       .  S
C2235      C3076   1.474       .  S
O2237      C2240   1.266       .  A
O2238      C2240   1.261       .  A
C2240      C3046   1.488       .  S
O2241      C2246   1.277       .  A
O2242      C2244   1.272   1_556  A
C2243      O2245   1.269       .  A
C2243      C3056   1.485       .  S
C2246      C3066   1.472       .  S
Fe2247     O2253   2.043       .  S
Fe2247     O2260   2.046       .  S
Fe2247     O2252   2.070       .  S
Fe2247     O2258   1.981       .  S
Fe2248     O2259   2.091       .  S
Fe2248     O2264   2.052       .  S
Fe2248     O2258   1.976       .  S
Fe2249     O2267   2.085       .  S
Fe2249     O2254   2.058       .  S
Fe2249     O2261   2.078       .  S
Fe2249     O2250   2.079       .  S
Fe2249     O2258   1.982       .  S
O2250      C2257   1.274       .  A
O2252      C2257   1.270       .  A
O2253      C2256   1.262       .  A
O2254      C2266   1.268       .  A
O2255      C2268   1.276       .  A
C2256      O2261   1.266       .  A
C2256      C3006   1.476       .  S
C2257      C3026   1.476       .  S
O2259      C2262   1.270       .  A
O2260      C2262   1.261       .  A
C2262      C3049   1.501       .  S
O2263      C2268   1.271       .  A
O2264      C2266   1.263       .  A
C2265      O2267   1.274       .  A
C2266      C3179   1.475       .  S
C2268      C3019   1.491       .  S
Fe2269     O2285   2.039       .  S
Fe2269     O2275   2.064       .  S
Fe2269     O2282   2.083       .  S
Fe2269     O2274   2.060       .  S
Fe2269     O2280   1.955       .  S
Fe2270     O2273   2.092       .  S
Fe2270     O2277   2.082       .  S
Fe2270     O2281   2.079       .  S
Fe2270     O2286   2.060       .  S
Fe2270     O2280   1.972       .  S
Fe2271     O2289   2.065       .  S
Fe2271     O2276   2.084       .  S
Fe2271     O2283   2.091       .  S
Fe2271     O2272   2.074       .  S
Fe2271     O2280   1.960       .  S
O2272      C2279   1.266       .  A
O2273      C2287   1.275       .  A
O2274      C2279   1.262       .  A
O2275      C2278   1.275       .  A
O2276      C2288   1.272       .  A
O2277      C2290   1.269       .  A
C2278      O2283   1.276       .  A
C2278      C3029   1.491       .  S
C2279      C2986   1.491       .  S
O2281      C2284   1.274       .  A
O2282      C2284   1.279       .  A
C2284      C3016   1.484       .  S
O2285      C2290   1.260       .  A
O2286      C2288   1.269       .  A
C2287      O2289   1.270       .  A
C2287      C2996   1.496       .  S
C2288      C2976   1.483       .  S
C2290      C3189   1.489       .  S
Fe2291     O2307   2.045       .  S
Fe2291     O2297   2.085       .  S
Fe2291     O2304   2.078       .  S
Fe2291     O2296   2.039       .  S
Fe2291     O2302   1.952       .  S
Fe2292     O2295   2.075       .  S
Fe2292     O2299   2.089       .  S
Fe2292     O2303   2.052       .  S
Fe2292     O2308   2.086       .  S
Fe2292     O2302   1.952       .  S
Fe2293     O2311   2.084       .  S
Fe2293     O2298   2.066       .  S
Fe2293     O2305   2.054       .  S
Fe2293     O2294   2.093       .  S
Fe2293     O2302   1.960       .  S
O2294      C2301   1.269       .  A
O2295      C2309   1.270       .  A
O2296      C2301   1.259       .  A
O2297      C2300   1.277       .  A
O2298      C2310   1.272       .  A
O2299      C2312   1.269       .  A
C2300      O2305   1.272       .  A
C2300      C3079   1.470       .  S
C2301      C2989   1.487       .  S
O2303      C2306   1.272       .  A
O2304      C2306   1.274       .  A
C2306      C3069   1.478       .  S
O2307      C2312   1.263       .  A
O2308      C2310   1.275       .  A
C2309      O2311   1.271       .  A
C2309      C3579   1.501       .  S
C2310      C2966   1.477       .  S
C2312      C3169   1.478       .  S
Fe2313     O2329   2.057       .  S
Fe2313     O2319   2.073       .  S
Fe2313     O2326   2.058       .  S
Fe2313     O2318   2.059       .  S
Fe2313     O2324   1.950       .  S
Fe2314     O2317   2.071       .  S
Fe2314     O2321   2.095       .  S
Fe2314     O2325   2.060       .  S
Fe2314     O2330   2.085       .  S
Fe2314     O2324   1.951       .  S
Fe2315     O2333   2.063       .  S
Fe2315     O2320   2.074       .  S
Fe2315     O2327   2.055       .  S
Fe2315     O2316   2.084       .  S
Fe2315     O2324   1.964       .  S
O2316      C2323   1.270       .  A
O2317      C2331   1.269       .  A
O2318      C2323   1.259       .  A
O2319      C2322   1.274       .  A
O2320      C2332   1.274       .  A
O2321      C2334   1.271       .  A
C2322      O2327   1.272       .  A
C2322      C3599   1.472       .  S
C2323      C2956   1.505       .  S
O2325      C2328   1.273       .  A
O2326      C2328   1.270       .  A
C2328      C3586   1.475       .  S
O2329      C2334   1.266       .  A
O2330      C2332   1.275       .  A
C2331      O2333   1.266       .  A
C2331      C3039   1.491       .  S
C2332      C2969   1.477       .  S
C2334      C3459   1.485       .  S
Fe2335     O2351   2.034       .  S
Fe2335     O2341   2.079       .  S
Fe2335     O2348   2.047       .  S
Fe2335     O2340   2.025       .  S
Fe2335     O2346   1.955       .  S
Fe2336     O2339   2.061       .  S
Fe2336     O2343   2.092       .  S
Fe2336     O2347   2.042       .  S
Fe2336     O2352   2.067       .  S
Fe2336     O2346   1.963       .  S
Fe2337     O2355   2.084       .  S
Fe2337     O2342   2.075       .  S
Fe2337     O2349   2.063       .  S
Fe2337     O2338   2.113       .  S
Fe2337     O2346   1.970       .  S
O2338      C2345   1.269       .  A
O2339      C2353   1.268       .  A
O2340      C2345   1.258       .  A
O2341      C2344   1.275       .  A
O2342      C2354   1.273       .  A
O2343      C2356   1.271       .  A
C2344      O2349   1.272       .  A
C2344      C3569   1.484       .  S
C2345      C2959   1.505       .  S
O2347      C2350   1.267       .  A
O2348      C2350   1.264       .  A
C2350      C3556   1.456       .  S
O2351      C2356   1.263       .  A
O2352      C2354   1.272       .  A
C2353      O2355   1.272       .  A
C2353      C2946   1.479       .  S
C2354      C2936   1.471       .  S
C2356      C3679   1.478       .  S
Fe2357     O2373   2.066       .  S
Fe2357     O2363   2.058       .  S
Fe2357     O2370   2.055       .  S
Fe2357     O2362   2.050       .  S
Fe2357     O2368   1.959       .  S
Fe2358     O2361   2.062       .  S
Fe2358     O2365   2.086       .  S
Fe2358     O2374   2.065       .  S
Fe2358     O2368   1.968       .  S
Fe2359     O2377   2.067       .  S
Fe2359     O2364   2.090       .  S
Fe2359     O2371   2.104       .  S
Fe2359     O2360   2.073       .  S
Fe2359     O2368   1.977       .  S
O2360      C2367   1.265       .  A
O2361      C2375   1.268       .  A
O2362      C2367   1.264       .  A
O2363      C2366   1.272       .  A
O2364      C2376   1.275       .  A
O2365      C2378   1.267       .  A
C2366      O2371   1.278       .  A
C2366      C2919   1.507       .  S
C2367      C2909   1.482       .  S
O2369      C2372   1.271       .  A
C2372      C2926   1.468       .  S
O2373      C2378   1.268       .  A
O2374      C2376   1.272       .  A
C2375      O2377   1.270       .  A
C2375      C3539   1.483       .  S
C2378      C2896   1.500       .  S
Fe2379     O2395   2.058       .  S
Fe2379     O2392   2.054       .  S
Fe2379     O2384   2.049       .  S
Fe2379     O2390   1.962       .  S
Fe2380     O2383   2.070       .  S
Fe2380     O2387   2.071       .  S
Fe2380     O2391   2.090       .  S
Fe2380     O2396   2.041       .  S
Fe2380     O2390   1.960       .  S
Fe2381     O2399   2.069       .  S
Fe2381     O2386   2.104       .  S
Fe2381     O2382   2.074       .  S
Fe2381     O2390   1.967       .  S
O2382      C2389   1.263       .  A
O2383      C2397   1.267       .  A
O2384      C2389   1.258       .  A
O2385      C2388   1.277       .  A
O2386      C2398   1.279       .  A
O2387      C2400   1.264       .  A
C2388      O2393   1.288       .  A
C2388      C2876   1.482       .  S
C2389      C2906   1.486       .  S
O2391      C2394   1.276       .  A
O2392      C2394   1.270       .  A
C2394      C2889   1.472       .  S
O2395      C2400   1.262       .  A
O2396      C2398   1.269       .  A
C2397      O2399   1.267       .  A
C2397      C3009   1.480       .  S
C2398      C2979   1.504       .  S
C2400      C2866   1.493       .  S
Fe2401     O2417   2.043       .  S
Fe2401     O2407   2.077       .  S
Fe2401     O2414   2.083       .  S
Fe2401     O2406   2.040       .  S
Fe2401     O2412   1.961       .  S
Fe2402     O2405   2.092       .  S
Fe2402     O2409   2.096       .  S
Fe2402     O2413   2.079       .  S
Fe2402     O2418   2.079       .  S
Fe2402     O2412   1.973       .  S
Fe2403     O2421   2.068       .  S
Fe2403     O2408   2.062       .  S
Fe2403     O2415   2.067       .  S
Fe2403     O2404   2.077       .  S
Fe2403     O2412   1.976       .  S
O2404      C2411   1.267       .  A
O2405      C2419   1.274       .  A
O2406      C2411   1.260       .  A
O2407      C2410   1.275       .  A
O2408      C2420   1.269       .  A
O2409      C2422   1.270       .  A
C2410      O2415   1.271       .  A
C2410      C2836   1.475       .  S
C2411      C2826   1.476       .  S
O2413      C2416   1.277       .  A
O2414      C2416   1.275       .  A
C2416      C2849   1.485       .  S
O2417      C2422   1.262       .  A
O2418      C2420   1.272       .  A
C2419      O2421   1.270       .  A
C2419      C3686   1.502       .  S
C2420      C2856   1.472       .  S
C2422      C2816   1.499       .  S
Fe2423     O2439   2.040       .  S
Fe2423     O2429   2.077       .  S
Fe2423     O2436   2.105       .  S
Fe2423     O2428   2.047       .  S
Fe2423     O2434   1.955       .  S
Fe2424     O2427   2.093       .  S
Fe2424     O2431   2.106       .  S
Fe2424     O2435   2.069       .  S
Fe2424     O2440   2.087       .  S
Fe2424     O2434   1.967       .  S
Fe2425     O2443   2.069       .  S
Fe2425     O2430   2.070       .  S
Fe2425     O2437   2.071       .  S
Fe2425     O2426   2.078       .  S
Fe2425     O2434   1.957       .  S
O2426      C2433   1.269       .  A
O2427      C2441   1.278       .  A
O2428      C2433   1.265       .  A
O2429      C2432   1.270       .  A
O2430      C2442   1.268       .  A
O2431      C2444   1.270       .  A
C2432      O2437   1.272       .  A
C2432      C2796   1.480       .  S
C2433      C2829   1.494       .  S
O2435      C2438   1.276       .  A
O2436      C2438   1.279       .  A
C2438      C2806   1.486       .  S
O2439      C2444   1.259       .  A
O2440      C2442   1.274       .  A
C2441      O2443   1.273       .  A
C2441      C3119   1.504       .  S
C2442      C2786   1.488       .  S
C2444      C2776   1.495       .  S
Fe2445     O2461   2.053       .  S
Fe2445     O2458   2.076       .  S
Fe2445     O2450   2.044       .  S
Fe2445     O2456   1.940       .  S
Fe2446     O2449   2.053       .  S
Fe2446     O2453   2.087       .  S
Fe2446     O2457   2.037       .  S
Fe2446     O2462   2.073       .  S
Fe2446     O2456   1.945       .  S
Fe2447     O2465   2.071       .  S
Fe2447     O2452   2.070       .  S
Fe2447     O2448   2.084       .  S
Fe2447     O2456   1.960       .  S
O2448      C2455   1.266       .  A
O2449      C2463   1.267       .  A
O2450      C2455   1.259       .  A
O2451      C2454   1.276       .  A
O2452      C2464   1.272       .  A
O2453      C2466   1.270       .  A
C2454      O2459   1.270       .  A
C2454      C3736   1.461       .  S
C2455      C2756   1.494       .  S
O2457      C2460   1.266       .  A
O2458      C2460   1.272       .  A
C2460      C3729   1.477       .  S
O2461      C2466   1.267       .  A
O2462      C2464   1.272       .  A
C2463      O2465   1.270       .  A
C2463      C2766   1.468   1_455  S
C2464      C2859   1.470       .  S
C2466      C3506   1.478       .  S
Fe2467     O2483   2.053       .  S
Fe2467     O2473   2.112       .  S
Fe2467     O2480   2.082       .  S
Fe2467     O2472   2.038       .  S
Fe2467     O2478   1.936       .  S
Fe2468     O2471   2.059       .  S
Fe2468     O2475   2.090       .  S
Fe2468     O2484   2.081       .  S
Fe2468     O2478   1.942       .  S
Fe2469     O2487   2.077       .  S
Fe2469     O2474   2.071       .  S
Fe2469     O2481   2.051       .  S
Fe2469     O2470   2.109       .  S
Fe2469     O2478   1.957       .  S
O2470      C2477   1.271       .  A
O2471      C2485   1.266       .  A
O2472      C2477   1.259       .  A
O2473      C2476   1.278       .  A
O2474      C2486   1.275       .  A
O2475      C2488   1.274       .  A
C2476      O2481   1.269       .  A
C2476      C3656   1.503       .  S
C2477      C2759   1.490       .  S
O2479      C2482   1.267       .  A
C2482      C3646   1.480       .  S
O2483      C2488   1.269       .  A
O2484      C2486   1.276       .  A
C2485      O2487   1.271       .  A
C2485      C3086   1.478       .  S
C2488      C3546   1.476       .  S
Fe2489     O2505   2.052       .  S
Fe2489     O2495   2.098       .  S
Fe2489     O2502   2.084       .  S
Fe2489     O2494   2.048       .  S
Fe2489     O2500   1.940       .  S
Fe2490     O2493   2.069       .  S
Fe2490     O2497   2.083       .  S
Fe2490     O2501   2.041       .  S
Fe2490     O2506   2.086       .  S
Fe2490     O2500   1.949       .  S
Fe2491     O2509   2.093       .  S
Fe2491     O2496   2.074       .  S
Fe2491     O2503   2.059       .  S
Fe2491     O2492   2.099       .  S
Fe2491     O2500   1.962       .  S
O2492      C2499   1.266       .  A
O2493      C2507   1.264       .  A
O2494      C2499   1.260       .  A
O2495      C2498   1.281       .  A
O2496      C2508   1.275       .  A
O2497      C2510   1.272       .  A
C2498      O2503   1.277       .  A
C2498      C3149   1.486       .  S
C2499      C2729   1.501       .  S
O2501      C2504   1.265       .  A
O2502      C2504   1.271       .  A
C2504      C3136   1.493       .  S
O2505      C2510   1.268       .  A
O2506      C2508   1.280       .  A
C2507      O2509   1.273       .  A
C2507      C2739   1.487       .  S
C2508      C2789   1.490       .  S
C2510      C3059   1.473       .  S
Fe2511     O2527   2.041       .  S
Fe2511     O2517   2.076       .  S
Fe2511     O2524   2.075       .  S
Fe2511     O2516   2.022       .  S
Fe2511     O2522   1.952       .  S
Fe2512     O2515   2.059       .  S
Fe2512     O2519   2.089       .  S
Fe2512     O2523   2.051       .  S
Fe2512     O2528   2.067       .  S
Fe2512     O2522   1.969       .  S
Fe2513     O2531   2.081       .  S
Fe2513     O2518   2.074       .  S
Fe2513     O2525   2.068       .  S
Fe2513     O2514   2.109       .  S
Fe2513     O2522   1.986       .  S
O2514      C2521   1.271       .  A
O2515      C2529   1.269       .  A
O2516      C2521   1.253       .  A
O2517      C2520   1.274       .  A
O2518      C2530   1.272       .  A
O2519      C2532   1.268       .  A
C2520      O2525   1.271       .  A
C2520      C3106   1.478       .  S
C2521      C2726   1.513       .  S
O2523      C2526   1.269       .  A
O2524      C2526   1.271       .  A
C2526      C3099   1.469       .  S
O2527      C2532   1.263       .  A
O2528      C2530   1.270       .  A
C2529      O2531   1.273       .  A
C2529      C3636   1.472       .  S
C2530      C2749   1.477       .  S
C2532      C3209   1.491       .  S
Fe2533     O2549   2.066       .  S
Fe2533     O2539   2.078       .  S
Fe2533     O2546   2.063       .  S
Fe2533     O2538   2.072       .  S
Fe2533     O2544   1.921       .  S
Fe2534     O2537   2.059       .  S
Fe2534     O2541   2.096       .  S
Fe2534     O2545   2.089       .  S
Fe2534     O2550   2.110       .  S
Fe2534     O2544   1.943       .  S
Fe2535     O2553   2.106       .  S
Fe2535     O2540   2.052       .  S
Fe2535     O2547   2.093       .  S
Fe2535     O2536   2.098       .  S
Fe2535     O2544   1.935       .  S
O2536      C2543   1.274       .  A
O2537      C2551   1.265       .  A
O2538      C2543   1.271       .  A
O2539      C2542   1.271       .  A
O2540      C2552   1.271       .  A
O2541      C2554   1.277       .  A
C2542      O2547   1.274       .  A
C2542      C2999   1.503       .  S
C2543      C2879   1.505       .  S
O2545      C2548   1.272       .  A
O2546      C2548   1.267       .  A
C2548      C2719   1.488       .  S
O2549      C2554   1.276       .  A
O2550      C2552   1.278       .  A
C2551      O2553   1.273       .  A
C2551      C2819   1.501   1_565  S
C2552      C2706   1.490       .  S
C2554      C2886   1.493       .  S
Fe2555     O2571   2.055       .  S
Fe2555     O2561   2.099       .  S
Fe2555     O2568   2.092       .  S
Fe2555     O2560   2.070       .  S
Fe2555     O2566   1.933       .  S
Fe2556     O2559   2.036       .  S
Fe2556     O2563   2.084       .  S
Fe2556     O2567   2.069       .  S
Fe2556     O2572   2.111       .  S
Fe2556     O2566   1.954       .  S
Fe2557     O2575   2.129       .  S
Fe2557     O2562   2.022       .  S
Fe2557     O2569   2.064       .  S
Fe2557     O2558   2.091       .  S
Fe2557     O2566   1.935       .  S
O2558      C2565   1.271       .  A
O2559      C2573   1.262       .  A
O2560      C2565   1.268       .  A
O2561      C2564   1.278       .  A
O2562      C2574   1.255       .  A
O2563      C2576   1.274       .  A
C2564      O2569   1.273       .  A
C2564      C2949   1.479       .  S
C2565      C2916   1.484       .  S
O2567      C2570   1.271       .  A
O2568      C2570   1.274       .  A
C2570      C2716   1.484       .  S
O2571      C2576   1.271       .  A
O2572      C2574   1.272       .  A
C2573      O2575   1.277       .  A
C2573      C3349   1.499       .  S
C2574      C2696   1.479       .  S
C2576      C2929   1.472       .  S
Fe2577     O2593   2.065       .  S
Fe2577     O2583   2.098       .  S
Fe2577     O2590   2.087       .  S
Fe2577     O2582   2.081       .  S
Fe2577     O2588   1.934       .  S
Fe2578     O2581   2.053       .  S
Fe2578     O2585   2.106       .  S
Fe2578     O2589   2.079       .  S
Fe2578     O2594   2.118       .  S
Fe2578     O2588   1.943       .  S
Fe2579     O2597   2.094       .  S
Fe2579     O2584   2.046       .  S
Fe2579     O2591   2.061       .  S
Fe2579     O2580   2.083       .  S
Fe2579     O2588   1.943       .  S
O2580      C2587   1.271       .  A
O2581      C2595   1.263       .  A
O2582      C2587   1.272       .  A
O2583      C2586   1.276       .  A
O2584      C2596   1.269       .  A
O2585      C2598   1.280       .  A
C2586      O2591   1.269       .  A
C2586      C3306   1.484       .  S
C2587      C3419   1.504       .  S
O2589      C2592   1.269       .  A
O2590      C2592   1.272       .  A
C2592      C2686   1.490       .  S
O2593      C2598   1.275       .  A
O2594      C2596   1.281       .  A
C2595      O2597   1.269       .  A
C2595      C2779   1.493       .  S
C2596      C2676   1.485       .  S
C2598      C3429   1.495       .  S
Fe2599     O2615   2.062       .  S
Fe2599     O2605   2.091       .  S
Fe2599     O2612   2.070       .  S
Fe2599     O2604   2.069       .  S
Fe2599     O2610   1.956       .  S
Fe2600     O2603   2.060       .  S
Fe2600     O2607   2.087       .  S
Fe2600     O2611   2.066       .  S
Fe2600     O2616   2.089       .  S
Fe2600     O2610   1.965       .  S
Fe2601     O2619   2.086       .  S
Fe2601     O2606   2.032       .  S
Fe2601     O2613   2.055       .  S
Fe2601     O2602   2.091       .  S
Fe2601     O2610   1.951       .  S
O2602      C2609   1.274       .  A
O2603      C2617   1.266       .  A
O2604      C2609   1.271       .  A
O2605      C2608   1.271       .  A
O2606      C2618   1.267       .  A
O2607      C2620   1.280       .  A
C2608      O2613   1.264       .  A
C2608      C3236   1.481       .  S
C2609      C3359   1.498       .  S
O2611      C2614   1.262       .  A
O2612      C2614   1.264       .  A
C2614      C2689   1.481       .  S
O2615      C2620   1.277       .  A
O2616      C2618   1.276       .  A
C2617      O2619   1.269       .  A
C2617      C2899   1.489       .  S
C2618      C2699   1.475       .  S
C2620      C3369   1.477       .  S
Fe2621     O2627   2.078       .  S
Fe2621     O2634   2.055       .  S
Fe2621     O2626   2.077       .  S
Fe2621     O2632   1.944       .  S
Fe2622     O2633   2.064       .  S
Fe2622     O2638   2.111       .  S
Fe2622     O2632   1.952       .  S
Fe2623     O2641   2.092       .  S
Fe2623     O2628   2.038       .  S
Fe2623     O2635   2.066       .  S
Fe2623     O2624   2.085       .  S
Fe2623     O2632   1.942       .  S
O2624      C2631   1.271       .  A
O2626      C2631   1.272       .  A
O2627      C2630   1.270       .  A
O2628      C2640   1.266       .  A
O2629      C2642   1.285       .  A
C2630      O2635   1.269       .  A
C2630      C2769   1.480       .  S
C2631      C2839   1.501       .  S
O2633      C2636   1.263       .  A
O2634      C2636   1.261       .  A
C2636      C2666   1.469       .  S
O2637      C2642   1.275       .  A
O2638      C2640   1.279       .  A
C2639      O2641   1.271       .  A
C2640      C2709   1.488       .  S
C2642      C2846   1.489       .  S
Fe2643     O2659   2.043       .  S
Fe2643     O2649   2.088       .  S
Fe2643     O2656   2.080       .  S
Fe2643     O2648   2.063       .  S
Fe2643     O2654   1.932       .  S
Fe2644     O2647   2.045       .  S
Fe2644     O2651   2.110       .  S
Fe2644     O2655   2.061       .  S
Fe2644     O2660   2.129       .  S
Fe2644     O2654   1.946       .  S
Fe2645     O2663   2.107       .  S
Fe2645     O2657   2.070       .  S
Fe2645     O2654   1.936       .  S
O2646      C2653   1.267       .  A
O2647      C2661   1.262       .  A
O2649      C2652   1.277       .  A
O2651      C2664   1.276       .  A
C2652      O2657   1.272       .  A
C2652      C2736   1.485       .  S
C2653      C2799   1.505       .  S
O2655      C2658   1.270       .  A
O2656      C2658   1.273       .  A
C2658      C2669   1.474       .  S
O2659      C2664   1.267       .  A
O2660      C2662   1.280       .  A
C2661      O2663   1.272       .  A
C2661      C3399   1.489       .  S
C2664      C2809   1.499       .  S
C2665      C2666   1.409       .  A
C2665      C2670   1.409       .  A
C2665     Br2672   1.930   1_556  S
C2666      C2667   1.406       .  A
C2667      C2668   1.405       .  A
C2667     Br2674   1.931       .  S
C2668      C2669   1.411       .  A
C2668     Br2673   1.930       .  S
C2669      C2670   1.410       .  A
C2670     Br2671   1.929   1_556  S
C2675      C2676   1.412       .  A
C2675      C2680   1.418       .  A
C2675     Br2682   1.921       .  S
C2676      C2677   1.412       .  A
C2677      C2678   1.399       .  A
C2677     Br2684   1.937       .  S
C2678      C2679   1.419       .  A
C2678     Br2683   1.946       .  S
C2679      C2680   1.413       .  A
C2680     Br2681   1.928       .  S
C2685      C2686   1.412       .  A
C2685      C2690   1.409   1_545  A
C2685     Br2692   1.924       .  S
C2686      C2687   1.412       .  A
C2687      C2688   1.414   1_545  A
C2687     Br2694   1.923       .  S
C2688      C2689   1.411       .  A
C2688     Br2693   1.929       .  S
C2689      C2690   1.406       .  A
C2690     Br2691   1.930       .  S
C2695      C2696   1.418       .  A
C2695      C2700   1.390       .  A
C2695     Br2702   1.950       .  S
C2696      C2697   1.416       .  A
C2697      C2698   1.416       .  A
C2697     Br2704   1.928       .  S
C2698      C2699   1.410       .  A
C2698     Br2703   1.927       .  S
C2699      C2700   1.412       .  A
C2700     Br2701   1.942       .  S
C2705      C2706   1.418       .  A
C2705      C2710   1.422   1_565  A
C2705     Br2712   1.927       .  S
C2706      C2707   1.411       .  A
C2707      C2708   1.392   1_565  A
C2707     Br2714   1.941       .  S
C2708      C2709   1.414       .  A
C2708     Br2713   1.937       .  S
C2709      C2710   1.414       .  A
C2710     Br2711   1.927       .  S
C2715      C2716   1.407       .  A
C2715      C2720   1.406       .  A
C2715     Br2722   1.925       .  S
C2716      C2717   1.413       .  A
C2717      C2718   1.416       .  A
C2717     Br2724   1.928       .  S
C2718      C2719   1.412       .  A
C2718     Br2723   1.927       .  S
C2719      C2720   1.413       .  A
C2720     Br2721   1.930       .  S
C2725      C2726   1.425       .  A
C2725      C2730   1.423   1_455  A
C2725     Br2732   1.933       .  S
C2726      C2727   1.430       .  A
C2727      C2728   1.401   1_455  A
C2727     Br2734   1.945       .  S
C2728      C2729   1.409       .  A
C2728     Br2733   1.944       .  S
C2729      C2730   1.418       .  A
C2730     Br2731   1.932       .  S
C2735      C2736   1.407       .  A
C2735      C2740   1.399       .  A
C2735     Br2742   1.920       .  S
C2736      C2737   1.413       .  A
C2737      C2738   1.417       .  A
C2737     Br2744   1.927       .  S
C2738      C2739   1.413       .  A
C2738     Br2743   1.921       .  S
C2739      C2740   1.407       .  A
C2740     Br2741   1.925       .  S
C2745      C2746   1.406       .  A
C2745      C2750   1.410       .  A
C2745     Br2752   1.929       .  S
C2746      C2747   1.406       .  A
C2747      C2748   1.404       .  A
C2748      C2749   1.411       .  A
C2748     Br2753   1.925       .  S
C2749      C2750   1.412       .  A
C2750     Br2751   1.928       .  S
C2755      C2756   1.420       .  A
C2755      C2760   1.416       .  A
C2755     Br2762   1.934       .  S
C2756      C2757   1.418       .  A
C2757      C2758   1.401       .  A
C2757     Br2764   1.941       .  S
C2758      C2759   1.415       .  A
C2758     Br2763   1.942       .  S
C2759      C2760   1.414       .  A
C2760     Br2761   1.930       .  S
C2765      C2766   1.409       .  A
C2765      C2770   1.401       .  A
C2765     Br2772   1.932   1_655  S
C2767      C2768   1.413       .  A
C2767     Br2774   1.931       .  S
C2768      C2769   1.408   1_554  A
C2768     Br2773   1.930       .  S
C2770     Br2771   1.933       .  S
C2775      C2776   1.417       .  A
C2775      C2780   1.403       .  A
C2775     Br2782   1.942       .  S
C2776      C2777   1.415       .  A
C2777      C2778   1.419       .  A
C2777     Br2784   1.929       .  S
C2778      C2779   1.417       .  A
C2778     Br2783   1.930       .  S
C2779      C2780   1.416       .  A
C2780     Br2781   1.941       .  S
C2785      C2786   1.412       .  A
C2785      C2790   1.416       .  A
C2785     Br2792   1.923       .  S
C2786      C2787   1.408       .  A
C2787      C2788   1.400       .  A
C2787     Br2794   1.922       .  S
C2788      C2789   1.409       .  A
C2788     Br2793   1.927       .  S
C2789      C2790   1.416       .  A
C2790     Br2791   1.927       .  S
C2795      C2796   1.408       .  A
C2795      C2800   1.419       .  A
C2795     Br2802   1.930       .  S
C2796      C2797   1.403       .  A
C2797      C2798   1.402       .  A
C2797     Br2804   1.935       .  S
C2798      C2799   1.423       .  A
C2798     Br2803   1.936       .  S
C2799      C2800   1.425       .  A
C2800     Br2801   1.932       .  S
C2805      C2806   1.405       .  A
C2805      C2810   1.407       .  A
C2805     Br2812   1.923       .  S
C2806      C2807   1.410       .  A
C2807      C2808   1.418       .  A
C2807     Br2814   1.929       .  S
C2808      C2809   1.421       .  A
C2808     Br2813   1.930       .  S
C2809      C2810   1.418       .  A
C2810     Br2811   1.936       .  S
C2815      C2816   1.417       .  A
C2815      C2820   1.405       .  A
C2815     Br2822   1.942       .  S
C2816      C2817   1.416       .  A
C2817      C2818   1.421       .  A
C2817     Br2824   1.930       .  S
C2818      C2819   1.418       .  A
C2818     Br2823   1.930   1_545  S
C2819      C2820   1.419       .  A
C2820     Br2821   1.941       .  S
C2825      C2826   1.408       .  A
C2825      C2830   1.404       .  A
C2825     Br2832   1.937       .  S
C2826      C2827   1.407       .  A
C2827      C2828   1.413       .  A
C2827     Br2834   1.931       .  S
C2828      C2829   1.422       .  A
C2828     Br2833   1.933       .  S
C2829      C2830   1.419       .  A
C2830     Br2831   1.935       .  S
C2835      C2836   1.402       .  A
C2835      C2840   1.404       .  A
C2835     Br2842   1.937       .  S
C2836      C2837   1.406       .  A
C2837      C2838   1.415       .  A
C2837     Br2844   1.929       .  S
C2838      C2839   1.423       .  A
C2838     Br2843   1.932       .  S
C2839      C2840   1.426       .  A
C2840     Br2841   1.935       .  S
C2845      C2846   1.412       .  A
C2845      C2850   1.414       .  A
C2845     Br2852   1.929       .  S
C2846      C2847   1.413       .  A
C2847      C2848   1.409       .  A
C2847     Br2854   1.923       .  S
C2848      C2849   1.408       .  A
C2848     Br2853   1.933       .  S
C2849      C2850   1.413       .  A
C2850     Br2851   1.929       .  S
C2855      C2856   1.409   1_455  A
C2855      C2860   1.407       .  A
C2855     Br2862   1.931       .  S
C2856      C2857   1.407       .  A
C2857      C2858   1.407       .  A
C2857     Br2864   1.923       .  S
C2858      C2859   1.406   1_655  A
C2858     Br2863   1.928       .  S
C2859      C2860   1.409       .  A
C2860     Br2861   1.928       .  S
C2865      C2866   1.421       .  A
C2865      C2870   1.416       .  A
C2865     Br2872   1.929       .  S
C2866      C2867   1.417       .  A
C2867      C2868   1.399       .  A
C2867     Br2874   1.942       .  S
C2868      C2869   1.409   1_565  A
C2869      C2870   1.407   1_545  A
C2870     Br2871   1.928   1_565  S
C2875      C2876   1.406       .  A
C2875      C2880   1.405       .  A
C2875     Br2882   1.935       .  S
C2876      C2877   1.406       .  A
C2877      C2878   1.417       .  A
C2877     Br2884   1.928       .  S
C2878      C2879   1.426       .  A
C2878     Br2883   1.933       .  S
C2879      C2880   1.424       .  A
C2880     Br2881   1.938       .  S
C2885      C2886   1.423       .  A
C2885      C2890   1.410       .  A
C2885     Br2892   1.930       .  S
C2886      C2887   1.415       .  A
C2887      C2888   1.406       .  A
C2887     Br2894   1.931       .  S
C2888      C2889   1.408       .  A
C2888     Br2893   1.932       .  S
C2889      C2890   1.404       .  A
C2890     Br2891   1.934       .  S
C2895      C2896   1.408       .  A
C2895      C2900   1.395       .  A
C2895     Br2902   1.925       .  S
C2896      C2897   1.421       .  A
C2897      C2898   1.424       .  A
C2897     Br2904   1.926       .  S
C2898      C2899   1.414       .  A
C2898     Br2903   1.926       .  S
C2899      C2900   1.411       .  A
C2900     Br2901   1.930       .  S
C2905      C2906   1.413       .  A
C2905      C2910   1.401       .  A
C2905     Br2912   1.927       .  S
C2906      C2907   1.415       .  A
C2907      C2908   1.415       .  A
C2908      C2909   1.410       .  A
C2909      C2910   1.407       .  A
C2910     Br2911   1.931       .  S
C2915      C2916   1.408       .  A
C2915      C2920   1.417       .  A
C2915     Br2922   1.927       .  S
C2916      C2917   1.408       .  A
C2917      C2918   1.405       .  A
C2917     Br2924   1.927       .  S
C2918      C2919   1.419       .  A
C2918     Br2923   1.937       .  S
C2919      C2920   1.423       .  A
C2920     Br2921   1.930       .  S
C2925      C2926   1.413       .  A
C2925      C2930   1.407       .  A
C2925     Br2932   1.932       .  S
C2926      C2927   1.403       .  A
C2927      C2928   1.401       .  A
C2927     Br2934   1.935       .  S
C2928      C2929   1.413       .  A
C2928     Br2933   1.920       .  S
C2929      C2930   1.408       .  A
C2930     Br2931   1.931       .  S
C2935      C2936   1.407       .  A
C2935      C2940   1.410       .  A
C2935     Br2942   1.929       .  S
C2936      C2937   1.405       .  A
C2937      C2938   1.405       .  A
C2937     Br2944   1.930       .  S
C2938      C2939   1.414       .  A
C2938     Br2943   1.929       .  S
C2939      C2940   1.416       .  A
C2945      C2946   1.408       .  A
C2945      C2950   1.410       .  A
C2945     Br2952   1.930       .  S
C2946      C2947   1.413       .  A
C2947      C2948   1.410       .  A
C2947     Br2954   1.931       .  S
C2948      C2949   1.408       .  A
C2948     Br2953   1.929       .  S
C2949      C2950   1.410       .  A
C2950     Br2951   1.925       .  S
C2955      C2956   1.421       .  A
C2955      C2960   1.420       .  A
C2955     Br2962   1.934       .  S
C2956      C2957   1.419       .  A
C2957      C2958   1.404       .  A
C2957     Br2964   1.941       .  S
C2958      C2959   1.420       .  A
C2958     Br2963   1.943       .  S
C2959      C2960   1.419       .  A
C2960     Br2961   1.932       .  S
C2965      C2966   1.411       .  A
C2965      C2970   1.411       .  A
C2965     Br2972   1.928       .  S
C2966      C2967   1.409       .  A
C2967      C2968   1.407       .  A
C2967     Br2974   1.931       .  S
C2968      C2969   1.410       .  A
C2968     Br2973   1.927       .  S
C2969      C2970   1.407       .  A
C2970     Br2971   1.926       .  S
C2975      C2976   1.408       .  A
C2975      C2980   1.397       .  A
C2975     Br2982   1.933       .  S
C2976      C2977   1.411       .  A
C2977      C2978   1.420       .  A
C2977     Br2984   1.927       .  S
C2978      C2979   1.422       .  A
C2978     Br2983   1.929       .  S
C2979      C2980   1.420       .  A
C2980     Br2981   1.942       .  S
C2985      C2986   1.416       .  A
C2985      C2990   1.407       .  A
C2985     Br2992   1.937       .  S
C2986      C2987   1.418       .  A
C2987      C2988   1.414       .  A
C2987     Br2994   1.932       .  S
C2988      C2989   1.411       .  A
C2988     Br2993   1.931       .  S
C2989      C2990   1.416       .  A
C2990     Br2991   1.938       .  S
C2995      C2996   1.415       .  A
C2995      C3000   1.400       .  A
C2995     Br3002   1.939       .  S
C2996      C2997   1.416       .  A
C2997      C2998   1.424       .  A
C2997     Br3004   1.926       .  S
C2998      C2999   1.419       .  A
C2998     Br3003   1.928       .  S
C2999      C3000   1.414       .  A
C3000     Br3001   1.932       .  S
C3005      C3006   1.409       .  A
C3005      C3010   1.410       .  A
C3005     Br3012   1.925       .  S
C3007      C3008   1.404       .  A
C3007     Br3014   1.935       .  S
C3008      C3009   1.411       .  A
C3008     Br3013   1.926       .  S
C3010     Br3011   1.926       .  S
C3015      C3016   1.410       .  A
C3015      C3020   1.409       .  A
C3015     Br3022   1.931       .  S
C3016      C3017   1.413       .  A
C3017      C3018   1.410       .  A
C3017     Br3024   1.928       .  S
C3018      C3019   1.414       .  A
C3018     Br3023   1.930       .  S
C3019      C3020   1.416       .  A
C3020     Br3021   1.933       .  S
C3025      C3026   1.403       .  A
C3025      C3030   1.409       .  A
C3025     Br3032   1.924       .  S
C3026      C3027   1.406       .  A
C3027      C3028   1.408       .  A
C3027     Br3034   1.931       .  S
C3028      C3029   1.415       .  A
C3028     Br3033   1.930       .  S
C3029      C3030   1.420       .  A
C3030     Br3031   1.932       .  S
C3035      C3036   1.408       .  A
C3035      C3040   1.405       .  A
C3035     Br3042   1.935       .  S
C3036      C3037   1.406       .  A
C3037      C3038   1.412       .  A
C3037     Br3044   1.924       .  S
C3038      C3039   1.419       .  A
C3038     Br3043   1.932       .  S
C3039      C3040   1.420       .  A
C3040     Br3041   1.938       .  S
C3045      C3046   1.411       .  A
C3045      C3050   1.406       .  A
C3045     Br3052   1.941       .  S
C3046      C3047   1.412       .  A
C3047      C3048   1.417       .  A
C3047     Br3054   1.931       .  S
C3048      C3049   1.420       .  A
C3048     Br3053   1.932       .  S
C3049      C3050   1.423       .  A
C3050     Br3051   1.938       .  S
C3055      C3056   1.419       .  A
C3055      C3060   1.413       .  A
C3055     Br3062   1.930       .  S
C3056      C3057   1.415       .  A
C3057      C3058   1.401       .  A
C3057     Br3064   1.936       .  S
C3058      C3059   1.408       .  A
C3058     Br3063   1.933       .  S
C3059      C3060   1.406       .  A
C3060     Br3061   1.927       .  S
C3065      C3066   1.406       .  A
C3065      C3070   1.410       .  A
C3065     Br3072   1.926       .  S
C3066      C3067   1.408       .  A
C3067      C3068   1.401       .  A
C3067     Br3074   1.926       .  S
C3068      C3069   1.411       .  A
C3068     Br3073   1.936       .  S
C3069      C3070   1.416       .  A
C3070     Br3071   1.930       .  S
C3075      C3076   1.412       .  A
C3075      C3080   1.402       .  A
C3075     Br3082   1.935       .  S
C3076      C3077   1.412       .  A
C3077      C3078   1.407       .  A
C3077     Br3084   1.930       .  S
C3078      C3079   1.407       .  A
C3078     Br3083   1.925       .  S
C3079      C3080   1.409       .  A
C3080     Br3081   1.930       .  S
C3085      C3086   1.415       .  A
C3085      C3090   1.411       .  A
C3085     Br3092   1.929       .  S
C3086      C3087   1.407       .  A
C3087      C3088   1.404       .  A
C3087     Br3094   1.929       .  S
C3088      C3089   1.411       .  A
C3088     Br3093   1.930       .  S
C3089      C3090   1.407       .  A
C3090     Br3091   1.930       .  S
C3095      C3100   1.411   1_554  A
C3096      C3097   1.413       .  A
C3097     Br3104   1.923       .  S
C3098      C3099   1.401       .  A
C3098     Br3103   1.937       .  S
C3099      C3100   1.408       .  A
C3100     Br3101   1.930       .  S
C3105      C3106   1.405       .  A
C3105      C3110   1.402       .  A
C3105     Br3112   1.931       .  S
C3106      C3107   1.407       .  A
C3107      C3108   1.414       .  A
C3107     Br3114   1.928       .  S
C3108      C3109   1.420       .  A
C3108     Br3113   1.931       .  S
C3109      C3110   1.420       .  A
C3110     Br3111   1.935       .  S
C3115      C3116   1.411       .  A
C3115      C3120   1.420       .  A
C3115     Br3122   1.927       .  S
C3116      C3117   1.412       .  A
C3117      C3118   1.405       .  A
C3117     Br3124   1.935       .  S
C3118      C3119   1.417       .  A
C3118     Br3123   1.938       .  S
C3119      C3120   1.421       .  A
C3120     Br3121   1.929       .  S
C3125      C3126   1.408       .  A
C3125      C3130   1.407       .  A
C3125     Br3132   1.931       .  S
C3126      C3127   1.411       .  A
C3127      C3128   1.409       .  A
C3128      C3129   1.408       .  A
C3128     Br3133   1.930       .  S
C3129      C3130   1.409       .  A
C3130     Br3131   1.930       .  S
C3135      C3136   1.419       .  A
C3135      C3140   1.404       .  A
C3135     Br3142   1.938       .  S
C3136      C3137   1.419       .  A
C3137      C3138   1.413       .  A
C3137     Br3144   1.930       .  S
C3138      C3139   1.406       .  A
C3138     Br3143   1.927       .  S
C3139      C3140   1.406       .  A
C3140     Br3141   1.932       .  S
C3145      C3146   1.411       .  A
C3145      C3150   1.416       .  A
C3145     Br3152   1.931       .  S
C3146      C3147   1.410       .  A
C3147     Br3154   1.937       .  S
C3148      C3149   1.411   1_554  A
C3148     Br3153   1.922   1_554  S
C3155      C3156   1.413       .  A
C3155      C3160   1.405   1_655  A
C3155     Br3162   1.935       .  S
C3156      C3157   1.414       .  A
C3157      C3158   1.413   1_655  A
C3157     Br3164   1.931       .  S
C3158      C3159   1.412       .  A
C3158     Br3163   1.929       .  S
C3159      C3160   1.410       .  A
C3160     Br3161   1.927       .  S
C3165      C3166   1.418       .  A
C3165      C3170   1.404       .  A
C3165     Br3172   1.938       .  S
C3166      C3167   1.419       .  A
C3167      C3168   1.414       .  A
C3167     Br3174   1.930       .  S
C3168      C3169   1.406       .  A
C3168     Br3173   1.926       .  S
C3169      C3170   1.408       .  A
C3170     Br3171   1.934       .  S
C3175      C3176   1.405       .  A
C3175      C3180   1.409       .  A
C3175     Br3182   1.930       .  S
C3176      C3177   1.405   1_455  A
C3177      C3178   1.398       .  A
C3177     Br3184   1.926       .  S
C3178      C3179   1.410       .  A
C3178     Br3183   1.928       .  S
C3179      C3180   1.419   1_655  A
C3180     Br3181   1.935       .  S
C3185      C3186   1.418   1_655  A
C3185      C3190   1.415       .  A
C3185     Br3192   1.933   1_655  S
C3186      C3187   1.413   1_455  A
C3187      C3188   1.401       .  A
C3187     Br3194   1.942   1_655  S
C3188      C3189   1.419       .  A
C3188     Br3193   1.938       .  S
C3189      C3190   1.413       .  A
C3190     Br3191   1.929       .  S
C3195      C3196   1.413       .  A
C3195      C3200   1.416       .  A
C3195     Br3202   1.930       .  S
C3196      C3197   1.411       .  A
C3197      C3198   1.407       .  A
C3197     Br3204   1.926       .  S
C3198      C3199   1.411       .  A
C3198     Br3203   1.932       .  S
C3199      C3200   1.415       .  A
C3200     Br3201   1.931       .  S
C3205      C3206   1.421       .  A
C3205      C3210   1.402       .  A
C3205     Br3212   1.941       .  S
C3206      C3207   1.420       .  A
C3207      C3208   1.419       .  A
C3207     Br3214   1.930       .  S
C3208      C3209   1.413       .  A
C3208     Br3213   1.930       .  S
C3209      C3210   1.412       .  A
C3210     Br3211   1.941       .  S
C3215      C3216   1.409       .  A
C3215      C3220   1.388       .  A
C3215     Br3222   1.938       .  S
C3216      C3217   1.413       .  A
C3217      C3218   1.418       .  A
C3217     Br3224   1.926       .  S
C3218      C3219   1.414       .  A
C3218     Br3223   1.926       .  S
C3219      C3220   1.412       .  A
C3220     Br3221   1.938       .  S
C3225      C3226   1.412       .  A
C3225      C3230   1.398       .  A
C3225     Br3232   1.938       .  S
C3226      C3227   1.420       .  A
C3227      C3228   1.424       .  A
C3227     Br3234   1.929       .  S
C3228      C3229   1.415       .  A
C3228     Br3233   1.926       .  S
C3229      C3230   1.415       .  A
C3230     Br3231   1.938       .  S
C3235      C3236   1.411       .  A
C3235      C3240   1.408       .  A
C3235     Br3242   1.931       .  S
C3236      C3237   1.409       .  A
C3237      C3238   1.412       .  A
C3237     Br3244   1.930       .  S
C3238      C3239   1.415       .  A
C3238     Br3243   1.931       .  S
C3239      C3240   1.411       .  A
C3240     Br3241   1.932       .  S
C3245      C3246   1.408       .  A
C3245      C3250   1.415       .  A
C3245     Br3252   1.928       .  S
C3246      C3247   1.406       .  A
C3247      C3248   1.407       .  A
C3247     Br3254   1.935       .  S
C3248      C3249   1.426       .  A
C3248     Br3253   1.936       .  S
C3249      C3250   1.419       .  A
C3250     Br3251   1.929       .  S
C3255      C3256   1.410       .  A
C3255      C3260   1.413       .  A
C3255     Br3262   1.927       .  S
C3256      C3257   1.404       .  A
C3257      C3258   1.404       .  A
C3257     Br3264   1.937       .  S
C3258      C3259   1.415       .  A
C3258     Br3263   1.919       .  S
C3259      C3260   1.411       .  A
C3260     Br3261   1.927       .  S
C3265      C3270   1.410       .  A
C3265     Br3272   1.926       .  S
C3266      C3267   1.407   1_655  A
C3267      C3268   1.419       .  A
C3267     Br3274   1.926   1_455  S
C3268      C3269   1.421       .  A
C3268     Br3273   1.924       .  S
C3270     Br3271   1.929       .  S
C3275      C3276   1.432       .  A
C3275      C3280   1.410       .  A
C3275     Br3282   1.947       .  S
C3276      C3277   1.424       .  A
C3277      C3278   1.419       .  A
C3277     Br3284   1.935       .  S
C3278      C3279   1.416       .  A
C3278     Br3283   1.933       .  S
C3279      C3280   1.415       .  A
C3280     Br3281   1.946       .  S
C3285      C3286   1.406       .  A
C3285      C3290   1.406       .  A
C3285     Br3292   1.928       .  S
C3286      C3287   1.408       .  A
C3287      C3288   1.399       .  A
C3287     Br3294   1.935       .  S
C3288      C3289   1.412       .  A
C3288     Br3293   1.937       .  S
C3289      C3290   1.411       .  A
C3290     Br3291   1.930       .  S
C3295      C3296   1.413       .  A
C3295      C3300   1.402       .  A
C3295     Br3302   1.932       .  S
C3296      C3297   1.421       .  A
C3297      C3298   1.408       .  A
C3297     Br3304   1.930       .  S
C3298      C3299   1.402       .  A
C3298     Br3303   1.926       .  S
C3299      C3300   1.406       .  A
C3300     Br3301   1.927       .  S
C3305      C3306   1.411       .  A
C3305      C3310   1.406       .  A
C3305     Br3312   1.932       .  S
C3306      C3307   1.411       .  A
C3307      C3308   1.414       .  A
C3307     Br3314   1.930       .  S
C3308      C3309   1.416       .  A
C3308     Br3313   1.930       .  S
C3309      C3310   1.413       .  A
C3310     Br3311   1.933       .  S
C3315      C3316   1.408       .  A
C3315      C3320   1.409       .  A
C3315     Br3322   1.930       .  S
C3316      C3317   1.412   1_565  A
C3317      C3318   1.409       .  A
C3317     Br3324   1.928       .  S
C3318      C3319   1.407       .  A
C3318     Br3323   1.932       .  S
C3319      C3320   1.411   1_545  A
C3320     Br3321   1.930       .  S
C3325      C3326   1.413       .  A
C3325      C3330   1.404       .  A
C3325     Br3332   1.941       .  S
C3326      C3327   1.415       .  A
C3327      C3328   1.418       .  A
C3327     Br3334   1.933       .  S
C3328      C3329   1.425       .  A
C3328     Br3333   1.935       .  S
C3329      C3330   1.422       .  A
C3330     Br3331   1.941       .  S
C3335      C3336   1.419   1_565  A
C3335      C3340   1.413       .  A
C3335     Br3342   1.931   1_565  S
C3336      C3337   1.419   1_545  A
C3337      C3338   1.403       .  A
C3337     Br3344   1.937   1_565  S
C3338      C3339   1.407       .  A
C3338     Br3343   1.933       .  S
C3339      C3340   1.408       .  A
C3340     Br3341   1.925       .  S
C3345      C3346   1.415       .  A
C3345      C3350   1.405       .  A
C3345     Br3352   1.941       .  S
C3346      C3347   1.418       .  A
C3347      C3348   1.421       .  A
C3347     Br3354   1.930       .  S
C3348      C3349   1.415       .  A
C3348     Br3353   1.928       .  S
C3349      C3350   1.418       .  A
C3350     Br3351   1.939       .  S
C3355      C3356   1.404       .  A
C3355      C3360   1.402       .  A
C3355     Br3362   1.927       .  S
C3356      C3357   1.407       .  A
C3357      C3358   1.417       .  A
C3357     Br3364   1.928       .  S
C3358      C3359   1.422       .  A
C3358     Br3363   1.930       .  S
C3359      C3360   1.420       .  A
C3360     Br3361   1.934       .  S
C3365      C3366   1.411       .  A
C3365     Br3372   1.929       .  S
C3366      C3367   1.409       .  A
C3367     Br3374   1.936       .  S
C3368      C3369   1.414       .  A
C3368     Br3373   1.927       .  S
C3369      C3370   1.413       .  A
C3370     Br3371   1.930       .  S
C3375      C3376   1.407       .  A
C3375      C3380   1.408       .  A
C3375     Br3382   1.928       .  S
C3376      C3377   1.407       .  A
C3377      C3378   1.404       .  A
C3377     Br3384   1.930       .  S
C3378      C3379   1.409       .  A
C3378     Br3383   1.928       .  S
C3379      C3380   1.412       .  A
C3385      C3386   1.407       .  A
C3385      C3390   1.411       .  A
C3385     Br3392   1.928       .  S
C3386      C3387   1.414       .  A
C3387      C3388   1.404       .  A
C3387     Br3394   1.928       .  S
C3388      C3389   1.407       .  A
C3388     Br3393   1.935       .  S
C3389      C3390   1.415       .  A
C3390     Br3391   1.930       .  S
C3395      C3396   1.418       .  A
C3395      C3400   1.401       .  A
C3395     Br3402   1.943       .  S
C3396      C3397   1.418       .  A
C3397      C3398   1.418       .  A
C3397     Br3404   1.931       .  S
C3398      C3399   1.415       .  A
C3398     Br3403   1.930       .  S
C3399      C3400   1.414       .  A
C3400     Br3401   1.941       .  S
C3405      C3406   1.402       .  A
C3405      C3410   1.398   1_565  A
C3405     Br3412   1.938       .  S
C3406      C3407   1.408       .  A
C3407      C3408   1.417   1_565  A
C3407     Br3414   1.929       .  S
C3408      C3409   1.421       .  A
C3408     Br3413   1.931       .  S
C3409      C3410   1.423       .  A
C3410     Br3411   1.935       .  S
C3415      C3420   1.416       .  A
C3415     Br3422   1.929       .  S
C3416      C3417   1.403       .  A
C3417     Br3424   1.938       .  S
C3418      C3419   1.426       .  A
C3418     Br3423   1.939       .  S
C3419      C3420   1.426       .  A
C3420     Br3421   1.930       .  S
C3425      C3426   1.408       .  A
C3425      C3430   1.411       .  A
C3425     Br3432   1.932       .  S
C3426      C3427   1.411       .  A
C3427      C3428   1.411       .  A
C3427     Br3434   1.930       .  S
C3428      C3429   1.415       .  A
C3428     Br3433   1.931       .  S
C3429      C3430   1.418       .  A
C3430     Br3431   1.928       .  S
C3435      C3436   1.415       .  A
C3435      C3440   1.399       .  A
C3435     Br3442   1.926       .  S
C3436      C3437   1.416       .  A
C3437      C3438   1.412       .  A
C3437     Br3444   1.930       .  S
C3438      C3439   1.407       .  A
C3438     Br3443   1.927       .  S
C3439      C3440   1.403       .  A
C3440     Br3441   1.930       .  S
C3445      C3446   1.409       .  A
C3445      C3450   1.408       .  A
C3445     Br3452   1.926       .  S
C3446      C3447   1.414       .  A
C3447      C3448   1.414       .  A
C3447     Br3454   1.923       .  S
C3448      C3449   1.407       .  A
C3448     Br3453   1.928       .  S
C3449      C3450   1.412       .  A
C3450     Br3451   1.929       .  S
C3455      C3456   1.422       .  A
C3455      C3460   1.418       .  A
C3455     Br3462   1.930       .  S
C3456      C3457   1.423       .  A
C3457      C3458   1.405       .  A
C3457     Br3464   1.939       .  S
C3458      C3459   1.406       .  A
C3458     Br3463   1.933       .  S
C3459      C3460   1.408       .  A
C3460     Br3461   1.926       .  S
C3465      C3466   1.415       .  A
C3465      C3470   1.403       .  A
C3465     Br3472   1.930       .  S
C3466      C3467   1.413       .  A
C3467      C3468   1.407       .  A
C3467     Br3474   1.929       .  S
C3468      C3469   1.408       .  A
C3468     Br3473   1.932       .  S
C3469      C3470   1.405       .  A
C3470     Br3471   1.935       .  S
C3475      C3476   1.418       .  A
C3475      C3480   1.400       .  A
C3475     Br3482   1.940       .  S
C3476      C3477   1.418       .  A
C3477      C3478   1.405       .  A
C3477     Br3484   1.931       .  S
C3478      C3479   1.402       .  A
C3478     Br3483   1.930       .  S
C3479      C3480   1.405       .  A
C3480     Br3481   1.934       .  S
C3485      C3490   1.403       .  A
C3485     Br3492   1.933       .  S
C3486      C3487   1.410   1_556  A
C3487      C3488   1.417       .  A
C3487     Br3494   1.927       .  S
C3488     Br3493   1.931       .  S
C3489      C3490   1.417       .  A
C3490     Br3491   1.936   1_545  S
C3495      C3496   1.408       .  A
C3495      C3500   1.410       .  A
C3495     Br3502   1.924   1_556  S
C3496      C3497   1.406       .  A
C3497      C3498   1.410       .  A
C3498      C3499   1.413       .  A
C3499      C3500   1.410       .  A
C3500     Br3501   1.929   1_556  S
C3505      C3510   1.419       .  A
C3505     Br3512   1.927   1_554  S
C3506      C3507   1.408       .  A
C3507      C3508   1.404       .  A
C3507     Br3514   1.928       .  S
C3508      C3509   1.413       .  A
C3508     Br3513   1.933       .  S
C3510     Br3511   1.931   1_554  S
C3515      C3516   1.402       .  A
C3515      C3520   1.408       .  A
C3515     Br3522   1.929       .  S
C3516      C3517   1.405       .  A
C3517      C3518   1.401       .  A
C3517     Br3524   1.924       .  S
C3518      C3519   1.412       .  A
C3518     Br3523   1.935       .  S
C3519      C3520   1.420       .  A
C3520     Br3521   1.928       .  S
C3525      C3526   1.413       .  A
C3525      C3530   1.400       .  A
C3525     Br3532   1.937       .  S
C3526      C3527   1.422       .  A
C3527      C3528   1.410       .  A
C3527     Br3534   1.930       .  S
C3528      C3529   1.404       .  A
C3528     Br3533   1.932       .  S
C3529      C3530   1.406       .  A
C3530     Br3531   1.927       .  S
C3535      C3536   1.409       .  A
C3535      C3540   1.409       .  A
C3535     Br3542   1.931       .  S
C3536      C3537   1.405       .  A
C3537      C3538   1.406       .  A
C3537     Br3544   1.922       .  S
C3538      C3539   1.417       .  A
C3538     Br3543   1.937       .  S
C3539      C3540   1.412       .  A
C3540     Br3541   1.927       .  S
C3545      C3546   1.403       .  A
C3545      C3550   1.414       .  A
C3545     Br3552   1.932       .  S
C3546      C3547   1.407       .  A
C3547      C3548   1.406       .  A
C3547     Br3554   1.933       .  S
C3548      C3549   1.420       .  A
C3548     Br3553   1.935       .  S
C3549      C3550   1.426       .  A
C3550     Br3551   1.933       .  S
C3555      C3556   1.411       .  A
C3555     Br3562   1.930       .  S
C3556      C3557   1.404       .  A
C3557     Br3564   1.939       .  S
C3558      C3559   1.409       .  A
C3558     Br3563   1.925       .  S
C3559      C3560   1.405       .  A
C3560     Br3561   1.930       .  S
C3565      C3566   1.418       .  A
C3565      C3570   1.401       .  A
C3565     Br3572   1.941       .  S
C3566      C3567   1.418       .  A
C3567      C3568   1.412       .  A
C3567     Br3574   1.933       .  S
C3568      C3569   1.412       .  A
C3568     Br3573   1.932       .  S
C3569      C3570   1.411       .  A
C3570     Br3571   1.928       .  S
C3575      C3576   1.408       .  A
C3575      C3580   1.405       .  A
C3575     Br3582   1.934       .  S
C3576      C3577   1.409       .  A
C3577      C3578   1.418       .  A
C3577     Br3584   1.927       .  S
C3578      C3579   1.423       .  A
C3578     Br3583   1.931       .  S
C3579      C3580   1.419       .  A
C3580     Br3581   1.937       .  S
C3585      C3586   1.413       .  A
C3585      C3590   1.402       .  A
C3585     Br3592   1.935       .  S
C3586      C3587   1.417       .  A
C3587      C3588   1.405       .  A
C3587     Br3594   1.932       .  S
C3588      C3589   1.402       .  A
C3588     Br3593   1.924       .  S
C3589      C3590   1.406       .  A
C3590     Br3591   1.928       .  S
C3595      C3596   1.413       .  A
C3595     Br3602   1.937       .  S
C3596      C3597   1.415       .  A
C3597      C3598   1.412       .  A
C3597     Br3604   1.930       .  S
C3598     Br3603   1.928       .  S
C3599      C3600   1.410       .  A
C3600     Br3601   1.931       .  S
C3605      C3606   1.408       .  A
C3605      C3610   1.405       .  A
C3605     Br3612   1.930       .  S
C3606      C3607   1.410       .  A
C3607      C3608   1.408       .  A
C3608      C3609   1.407       .  A
C3608     Br3613   1.929       .  S
C3609      C3610   1.409       .  A
C3610     Br3611   1.930       .  S
C3615      C3616   1.410       .  A
C3615      C3620   1.412       .  A
C3615     Br3622   1.930       .  S
C3616      C3617   1.410       .  A
C3617      C3618   1.406       .  A
C3617     Br3624   1.930       .  S
C3618      C3619   1.414       .  A
C3618     Br3623   1.937       .  S
C3619      C3620   1.416       .  A
C3620     Br3621   1.930       .  S
C3625      C3626   1.421       .  A
C3625      C3630   1.416       .  A
C3625     Br3632   1.931       .  S
C3626      C3627   1.418       .  A
C3627      C3628   1.403       .  A
C3627     Br3634   1.939       .  S
C3628      C3629   1.410       .  A
C3628     Br3633   1.936       .  S
C3629      C3630   1.409       .  A
C3630     Br3631   1.927       .  S
C3635      C3636   1.409       .  A
C3635      C3640   1.412       .  A
C3635     Br3642   1.927       .  S
C3636      C3637   1.407       .  A
C3637      C3638   1.402       .  A
C3637     Br3644   1.932       .  S
C3638      C3639   1.409       .  A
C3638     Br3643   1.922       .  S
C3639      C3640   1.412       .  A
C3640     Br3641   1.929       .  S
C3645      C3646   1.413       .  A
C3645      C3650   1.411       .  A
C3645     Br3652   1.927       .  S
C3646      C3647   1.413       .  A
C3647      C3648   1.403       .  A
C3647     Br3654   1.934       .  S
C3648      C3649   1.407       .  A
C3648     Br3653   1.929       .  S
C3649      C3650   1.407       .  A
C3650     Br3651   1.929       .  S
C3655      C3656   1.422       .  A
C3655      C3660   1.408       .  A
C3655     Br3662   1.933       .  S
C3656      C3657   1.425       .  A
C3657      C3658   1.412       .  A
C3657     Br3664   1.933       .  S
C3658      C3659   1.404       .  A
C3658     Br3663   1.928       .  S
C3659      C3660   1.405       .  A
C3660     Br3661   1.932       .  S
C3665      C3666   1.419       .  A
C3665      C3670   1.414       .  A
C3665     Br3672   1.928       .  S
C3666      C3667   1.415       .  A
C3667      C3668   1.391       .  A
C3667     Br3674   1.934       .  S
C3668      C3669   1.397       .  A
C3668     Br3673   1.920       .  S
C3669      C3670   1.406       .  A
C3670     Br3671   1.928       .  S
C3675      C3676   1.424       .  A
C3675      C3680   1.404       .  A
C3675     Br3682   1.941       .  S
C3676      C3677   1.424       .  A
C3677      C3678   1.416       .  A
C3677     Br3684   1.930       .  S
C3678      C3679   1.405       .  A
C3678     Br3683   1.930       .  S
C3679      C3680   1.407       .  A
C3680     Br3681   1.937       .  S
C3685      C3686   1.417       .  A
C3685      C3690   1.407   1_655  A
C3685     Br3692   1.935       .  S
C3686      C3687   1.420   1_655  A
C3687      C3688   1.418       .  A
C3687     Br3694   1.928   1_455  S
C3688      C3689   1.410       .  A
C3688     Br3693   1.925       .  S
C3689      C3690   1.409       .  A
C3690     Br3691   1.933       .  S
C3695      C3696   1.416       .  A
C3695      C3700   1.415       .  A
C3695     Br3702   1.932       .  S
C3696      C3697   1.416       .  A
C3697      C3698   1.408       .  A
C3697     Br3704   1.938       .  S
C3698      C3699   1.414       .  A
C3698     Br3703   1.935       .  S
C3699      C3700   1.414       .  A
C3700     Br3701   1.931       .  S
C3705      C3706   1.418       .  A
C3705      C3710   1.412       .  A
C3705     Br3712   1.932       .  S
C3706      C3707   1.413       .  A
C3707      C3708   1.408       .  A
C3707     Br3714   1.933       .  S
C3708      C3709   1.409       .  A
C3708     Br3713   1.930       .  S
C3709      C3710   1.406       .  A
C3710     Br3711   1.922       .  S
C3715      C3716   1.409       .  A
C3715      C3720   1.408       .  A
C3715     Br3722   1.929       .  S
C3716      C3717   1.410       .  A
C3717      C3718   1.413       .  A
C3717     Br3724   1.930       .  S
C3718      C3719   1.412       .  A
C3718     Br3723   1.930       .  S
C3719      C3720   1.410       .  A
C3720     Br3721   1.930       .  S
C3725      C3726   1.404       .  A
C3725      C3730   1.401       .  A
C3725     Br3732   1.928       .  S
C3726      C3727   1.404       .  A
C3727      C3728   1.408       .  A
C3727     Br3734   1.926       .  S
C3728      C3729   1.417       .  A
C3728     Br3733   1.931       .  S
C3729      C3730   1.415       .  A
C3730     Br3731   1.937       .  S
C3735      C3736   1.405       .  A
C3735      C3740   1.408       .  A
C3735     Br3742   1.929       .  S
C3736      C3737   1.405       .  A
C3737      C3738   1.396       .  A
C3737     Br3744   1.931       .  S
C3738      C3739   1.412       .  A
C3738     Br3743   1.937       .  S
C3739      C3740   1.415       .  A
C3740     Br3741   1.931       .  S
