geometry optimzed in LAMMPS
_audit_creation_date              2020-12-01 
_audit_creation_method            'lammps2cif' 
_symmetry_space_group_name_H-M    'P1' 
_symmetry_Int_Tables_number       1 
_symmetry_cell_setting            triclinic 
loop_ 
_symmetry_equiv_pos_as_xyz 
  x,y,z 
_cell_length_a                    31.84022884 
_cell_length_b                    31.920198398323475 
_cell_length_c                    47.46531094793566 
_cell_angle_alpha                 90.21552959929573 
_cell_angle_beta                  89.91387671245079 
_cell_angle_gamma                 90.04282984075024 
loop_ 
_atom_site_label 
_atom_site_type_symbol 
_atom_site_fract_x 
_atom_site_fract_y 
_atom_site_fract_z 
_atom_site_charge 
Zr1        Zr  0.49368216  0.06016200  0.87854382     2.17500
O2          O  0.51881726  0.98961349  0.88819887    -0.52500
O3          O  0.41921604  0.04456985  0.88048213    -0.75700
O4          O  0.47835087  0.04228875  0.92806820    -0.82400
O5          O  0.55374638  0.04572390  0.81508298    -0.84200
O6          O  0.47210332  0.10283929  0.95357073    -0.79800
O7          O  0.49494872  0.01927605  0.83318948    -0.91400
O8          O  0.38571926  0.10541829  0.87043730    -0.77400
O9          O  0.45161490  0.11909449  0.89163143    -0.86900
O10         O  0.47961978  0.09815596  0.83598059    -0.86600
O11         O  0.53295734  0.10291637  0.91161143    -0.73300
O12         O  0.56188737  0.08116643  0.86159751    -0.85500
Zr13       Zr  0.54521422  0.21766983  0.86496990     2.26400
Zr14       Zr  0.48961729  0.16258049  0.92380776     2.06300
Zr15       Zr  0.54746056  0.12026673  0.81954850     2.10000
Zr16       Zr  0.43638253  0.15459437  0.84937698     1.78800
O17         O  0.60749214  0.09836507  0.79118492    -0.94300
O18         O  0.38191027  0.19913831  0.86963347    -0.42100
O19         O  0.50370685  0.17829931  0.83159000    -0.78700
O20         O  0.47577279  0.19828672  0.88018161    -0.97400
O21         O  0.55796877  0.18205457  0.90776035    -0.90700
O22         O  0.58778589  0.15962253  0.85243580    -0.93600
C23         C  0.38605674  0.06738266  0.87954208     1.00200
C24         C  0.52116272  0.02306586  0.81242524     1.13100
C25         C  0.47197870  0.06258068  0.95136609     1.03900
O26         O  0.42281453  0.17405497  0.94766981    -0.95700
O27         O  0.47583559  0.23890418  0.92635078    -0.91500
O28         O  0.53247078  0.26465056  0.90403880    -0.84600
C29         C  0.49688237  0.26979468  0.91594557     1.10500
O30         O  0.62276840  0.05973877  0.91870022    -0.97700
Zr31       Zr  0.60010781  0.12333990  0.89485287     1.88900
O32         O  0.61580799  0.23850097  0.87931628    -0.74300
O33         O  0.52854378  0.17915270  0.96653196    -0.53600
O34         O  0.62282968  0.13607866  0.94315606    -0.98300
O35         O  0.65994249  0.09316049  0.86993361    -0.55500
O36         O  0.65066604  0.17989229  0.89277049    -0.74900
C37         C  0.64912184  0.21917406  0.88733696     0.97500
O38         O  0.52216532  0.28457860  0.84563730    -0.63700
O39         O  0.50658341  0.11700438  0.77622086    -0.58500
O40         O  0.58105430  0.23532282  0.82237259    -0.95200
O41         O  0.58151347  0.17716460  0.79476616    -0.93600
O42         O  0.40074732  0.12752705  0.80765655    -0.93900
O43         O  0.41355148  0.20848503  0.81661069    -0.92700
C44         C  0.59011121  0.21577600  0.79963207     1.16300
H45         H  0.46436622  0.08274424  0.82179154     0.32300
H46         H  0.45831429  0.22287174  0.88122161     0.43100
H47         H  0.61421049  0.16795532  0.84420487     0.36700
H48         H  0.53994558  0.08727207  0.92828559     0.33100
H49         H  0.35543082  0.18892099  0.86110570     0.24900
H50         H  0.54350079  0.20559415  0.96224735     0.30900
H51         H  0.61787014  0.16630060  0.94656136     0.36800
H52         H  0.38595642  0.10197275  0.81405209     0.31200
H53         H  0.48160261  0.13458339  0.77999149     0.30100
H54         H  0.60023679  0.10555381  0.77150559     0.31800
H55         H  0.66538358  0.11232207  0.85398701     0.30800
H56         H  0.43640973  0.22953596  0.81685063     0.34800
H57         H  0.51408390  0.27844160  0.82590532     0.27500
H58         H  0.49379144  0.97418333  0.89496455     0.31700
H59         H  0.65321295  0.06347561  0.92214911     0.34600
H60         H  0.52313845  0.13324295  0.76235700     0.27200
H61         H  0.49506918  0.29044722  0.85506769     0.40000
H62         H  0.40313111  0.15427008  0.93845783     0.30100
H63         H  0.38007756  0.19048134  0.88961022     0.37700
H64         H  0.64883662  0.06737417  0.86098542     0.29600
H65         H  0.50666765  0.18737565  0.98031290     0.29600
H66         H  0.53698538  0.99255970  0.90501394     0.29900
Zr67       Zr  0.43317685  0.00392677  0.63179210     2.17500
O68         O  0.50469201  0.97982434  0.62346137    -0.52500
O69         O  0.44707549  0.07881194  0.63043329    -0.75700
O70         O  0.45172089  0.01924310  0.58247272    -0.82400
O71         O  0.44701081  0.94408532  0.69536759    -0.84200
O72         O  0.39123811  0.02516502  0.55687184    -0.79800
O73         O  0.47348468  0.00293661  0.67740653    -0.91400
O74         O  0.38399674  0.11022486  0.63727688    -0.77400
O75         O  0.37328564  0.04392180  0.61773206    -0.86900
O76         O  0.39361309  0.01686315  0.67396552    -0.86600
O77         O  0.39240436  0.96351503  0.59805872    -0.73300
O78         O  0.41307837  0.93542507  0.64814673    -0.85500
Zr79       Zr  0.27660338  0.94914985  0.64324932     2.26400
Zr80       Zr  0.33139346  0.00450367  0.58525749     2.06300
Zr81       Zr  0.37230702  0.94868521  0.68974495     2.10000
Zr82       Zr  0.33666898  0.05886730  0.65972684     1.78800
O83         O  0.39548776  0.89033132  0.71885618    -0.94300
O84         O  0.28933207  0.11177088  0.64086831    -0.42100
O85         O  0.31379000  0.99128789  0.67720380    -0.78700
O86         O  0.29458773  0.01866892  0.62841225    -0.97400
O87         O  0.31331985  0.93593194  0.60068026    -0.90700
O88         O  0.33534315  0.90775185  0.65602267    -0.93600
C89         C  0.42284107  0.11096054  0.62943697     1.00200
C90         C  0.46973975  0.97661038  0.69801431     1.13100
C91         C  0.43147039  0.02546112  0.55923035     1.03900
O92         O  0.31828827  0.06694491  0.55731707    -0.95700
O93         O  0.25472766  0.01703201  0.58230870    -0.91500
O94         O  0.22789308  0.96163436  0.60542375    -0.84600
C95         C  0.22338315  0.99626261  0.59245087     1.10500
O96         O  0.44132690  0.87428848  0.59551089    -0.97700
Zr97       Zr  0.37329649  0.89600151  0.61413948     1.88900
O98         O  0.25708097  0.87925456  0.62808109    -0.74300
O99         O  0.31651889  0.96245691  0.54355138    -0.53600
O100        O  0.36909656  0.87822428  0.56426516    -0.98300
O101        O  0.40069901  0.83426552  0.63797986    -0.55500
O102        O  0.31596566  0.84557593  0.61335179    -0.74900
C103        C  0.27651769  0.84665037  0.61903630     0.97500
O104        O  0.20942376  0.97147614  0.66301559    -0.63700
O105        O  0.36806060  0.99011267  0.73292644    -0.58500
O106        O  0.25864224  0.91087094  0.68456088    -0.95200
O107        O  0.31666245  0.90934289  0.71215839    -0.93600
O108        O  0.36440180  0.09454929  0.70124473    -0.93900
O109        O  0.28125000  0.08000819  0.69218649    -0.92700
C110        C  0.27835150  0.89998361  0.70676086     1.16300
H111        H  0.40852290  0.03207788  0.68843418     0.32300
H112        H  0.26959051  0.03553163  0.62723225     0.43100
H113        H  0.32758584  0.88082922  0.66354355     0.36700
H114        H  0.40878146  0.95691643  0.58153718     0.33100
H115        H  0.29757052  0.13805359  0.65053456     0.24900
H116        H  0.30417652  0.98248474  0.53000260     0.30900
H117        H  0.33879688  0.87401222  0.56055301     0.36800
H118        H  0.38841340  0.11127509  0.69423561     0.31200
H119        H  0.34420991  0.00946279  0.72989944     0.30100
H120        H  0.38648500  0.89727977  0.73829450     0.31800
H121        H  0.37631563  0.82187426  0.64787264     0.30800
H122        H  0.25743899  0.06113268  0.68774623     0.34800
H123        H  0.21569843  0.97945067  0.68275006     0.27500
H124        H  0.52014621  0.00510383  0.61728100     0.31700
H125        H  0.43701430  0.84569804  0.58787514     0.34600
H126        H  0.35778820  0.97034424  0.74741003     0.27200
H127        H  0.20322126  0.99850451  0.65376818     0.40000
H128        H  0.30265940  0.08595003  0.57008971     0.30100
H129        H  0.29868227  0.11568410  0.62114955     0.37700
H130        H  0.41847403  0.84572313  0.65328286     0.29600
H131        H  0.34447983  0.95571878  0.53560506     0.29600
H132        H  0.50287716  0.96194163  0.60640779     0.29900
Zr133      Zr  0.02137122  0.00105425  0.87450981     2.17500
O134        O  0.94802887  0.98145944  0.88103945    -0.52500
O135        O  0.00918676  0.07600853  0.87774370    -0.75700
O136        O  0.00108398  0.01282495  0.92428665    -0.82400
O137        O  0.00915185  0.94427434  0.80799451    -0.84200
O138        O  0.06115894  0.01883050  0.95025013    -0.79800
O139        O  0.98239070  0.00187242  0.82800541    -0.91400
O140        O  0.07028283  0.10916230  0.86725949    -0.77400
O141        O  0.08107894  0.04092139  0.88960606    -0.86900
O142        O  0.06191785  0.01535748  0.83308735    -0.86600
O143        O  0.06149751  0.95893414  0.90753312    -0.73300
O144        O  0.04156592  0.93312810  0.85674272    -0.85500
Zr145      Zr  0.17895363  0.94643431  0.86299012     2.26400
Zr146      Zr  0.12187155  0.99999191  0.92173700     2.06300
Zr147      Zr  0.08337577  0.94794682  0.81589204     2.10000
Zr148      Zr  0.11909147  0.05646312  0.84808613     1.78800
O149        O  0.06076375  0.89009926  0.78583611    -0.94300
O150        O  0.16362724  0.10991003  0.86946772    -0.42100
O151        O  0.14216555  0.98955534  0.82956867    -0.78700
O152        O  0.15973244  0.01516389  0.87914239    -0.97400
O153        O  0.14061612  0.93206721  0.90480775    -0.90700
O154        O  0.12041814  0.90562082  0.84863241    -0.93600
C155        C  0.03207862  0.10909172  0.87633975     1.00200
C156        C  0.98617377  0.97675553  0.80652142     1.13100
C157        C  0.02090900  0.01877573  0.94779685     1.03900
O158        O  0.13505607  0.06145218  0.95092760    -0.95700
O159        O  0.19810518  0.01399646  0.92551305    -0.91500
O160        O  0.22568320  0.95893596  0.90222450    -0.84600
C161        C  0.22973915  0.99377762  0.91525412     1.10500
O162        O  0.01324938  0.86965108  0.90786683    -0.97700
Zr163      Zr  0.08122210  0.89218865  0.88966406     1.88900
O164        O  0.19841174  0.87587376  0.87683397    -0.74300
O165        O  0.13694177  0.95787382  0.96318197    -0.53600
O166        O  0.08411695  0.86555319  0.93766361    -0.98300
O167        O  0.05198338  0.83574576  0.86096882    -0.55500
O168        O  0.13860856  0.84174357  0.88927801    -0.74900
C169        C  0.17834713  0.84291381  0.88454098     0.97500
O170        O  0.24694158  0.96978268  0.84503627    -0.63700
O171        O  0.08616897  0.99164944  0.77395796    -0.58500
O172        O  0.19738848  0.91059050  0.82033134    -0.95200
O173        O  0.13980670  0.91133353  0.79222698    -0.93600
O174        O  0.09588401  0.08948592  0.80459944    -0.93900
O175        O  0.17901139  0.07704782  0.81934536    -0.92700
C176        C  0.17797339  0.90140705  0.79756962     1.16300
H177        H  0.04738410  0.03132521  0.81891187     0.32300
H178        H  0.18449757  0.03232502  0.88069853     0.43100
H179        H  0.12852204  0.87916773  0.84034938     0.36700
H180        H  0.04488862  0.95150406  0.92378226     0.33100
H181        H  0.15433266  0.13652790  0.86085088     0.24900
H182        H  0.16546392  0.94651838  0.95984985     0.30900
H183        H  0.11364531  0.86964773  0.94357135     0.36800
H184        H  0.08761654  0.11819826  0.81025487     0.31200
H185        H  0.10897271  0.01199377  0.77771174     0.30100
H186        H  0.06811136  0.89848707  0.76638032     0.31800
H187        H  0.06859591  0.81060943  0.86584094     0.30800
H188        H  0.20098075  0.05603995  0.82357634     0.34800
H189        H  0.24203554  0.97671545  0.82499222     0.27500
H190        H  0.93480141  0.00583936  0.89048363     0.31700
H191        H  0.01576196  0.83909667  0.91097456     0.34600
H192        H  0.09762503  0.97312104  0.75904863     0.27200
H193        H  0.25168243  0.99739005  0.85404387     0.40000
H194        H  0.13444296  0.08521953  0.93760944     0.30100
H195        H  0.15390223  0.11174526  0.88925267     0.37700
H196        H  0.06021703  0.84234122  0.84135802     0.29600
H197        H  0.14074172  0.97859361  0.97854922     0.29600
H198        H  0.94850444  0.95925185  0.89554178     0.29900
Zr199      Zr  0.95662870  0.06063127  0.62697755     2.17500
O200        O  0.93099154  0.98997115  0.61776117    -0.52500
O201        O  0.03147321  0.04523240  0.62448785    -0.75700
O202        O  0.97144077  0.04267785  0.57739198    -0.82400
O203        O  0.89698601  0.04648346  0.69135991    -0.84200
O204        O  0.97801648  0.10313333  0.55212429    -0.79800
O205        O  0.95481441  0.01938577  0.67196649    -0.91400
O206        O  0.06542917  0.10545361  0.63597032    -0.77400
O207        O  0.99936766  0.11933541  0.61462296    -0.86900
O208        O  0.97076896  0.09790278  0.66992853    -0.86600
O209        O  0.91785613  0.10383704  0.59413709    -0.73300
O210        O  0.88859968  0.08287095  0.64374700    -0.85500
Zr211      Zr  0.90822641  0.21880292  0.64151463     2.26400
Zr212      Zr  0.96208393  0.16298257  0.58240321     2.06300
Zr213      Zr  0.90338185  0.12101814  0.68625891     2.10000
Zr214      Zr  0.01486535  0.15392414  0.65746446     1.78800
O215        O  0.84333676  0.09981394  0.71477207    -0.94300
O216        O  0.07160797  0.19843449  0.64041557    -0.42100
O217        O  0.94800701  0.17875951  0.67516219    -0.78700
O218        O  0.97686888  0.19758713  0.62636927    -0.97400
O219        O  0.89413564  0.18412772  0.59829138    -0.90700
O220        O  0.86451909  0.16122727  0.65335389    -0.93600
C221        C  0.06490276  0.06773717  0.62621109     1.00200
C222        C  0.92939264  0.02338661  0.69319898     1.13100
C223        C  0.97792663  0.06288712  0.55419022     1.03900
O224        O  0.02722759  0.17147142  0.55616658    -0.95700
O225        O  0.98011396  0.23848574  0.58077072    -0.91500
O226        O  0.92433648  0.26612069  0.60327187    -0.84600
C227        C  0.96009758  0.27006146  0.59130306     1.10500
O228        O  0.82580256  0.06062906  0.58995499    -0.97700
Zr229      Zr  0.85111952  0.12588833  0.61072741     1.88900
O230        O  0.83824147  0.24235941  0.62851826    -0.74300
O231        O  0.91984410  0.18334913  0.54200327    -0.53600
O232        O  0.83482995  0.13706927  0.56116476    -0.98300
O233        O  0.78733526  0.09846673  0.63243217    -0.55500
O234        O  0.80256625  0.18459167  0.61396622    -0.74900
C235        C  0.80460982  0.22369751  0.62030818     0.97500
O236        O  0.93596112  0.28447717  0.66015424    -0.63700
O237        O  0.94734028  0.11977807  0.72823471    -0.58500
O238        O  0.87142024  0.23595153  0.68395713    -0.95200
O239        O  0.86771710  0.17731205  0.71076851    -0.93600
O240        O  0.04747091  0.12319305  0.69900628    -0.93900
O241        O  0.03765774  0.20936753  0.68936748    -0.92700
C242        C  0.86006309  0.21609879  0.70604338     1.16300
H243        H  0.98563244  0.08215558  0.68403990     0.32300
H244        H  0.99505012  0.22167021  0.62576766     0.43100
H245        H  0.83801735  0.16976340  0.66140882     0.36700
H246        H  0.91054312  0.08827992  0.57742044     0.33100
H247        H  0.09760935  0.18515633  0.64751384     0.24900
H248        H  0.93645833  0.20555925  0.53265730     0.30900
H249        H  0.81240380  0.15852506  0.56108258     0.36800
H250        H  0.07765518  0.12113784  0.69414631     0.31200
H251        H  0.96210079  0.14710005  0.72823815     0.30100
H252        H  0.85174302  0.10497062  0.73455521     0.31800
H253        H  0.76399050  0.10997175  0.62107652     0.30800
H254        H  0.02084283  0.20521833  0.70669760     0.34800
H255        H  0.91118715  0.30292822  0.66236530     0.27500
H256        H  0.95469605  0.97526413  0.60851911     0.31700
H257        H  0.79948664  0.06791326  0.58002558     0.34600
H258        H  0.92742585  0.12173483  0.74420096     0.27200
H259        H  0.94482950  0.27795736  0.67964199     0.40000
H260        H  0.04961916  0.16704163  0.57030174     0.30100
H261        H  0.07234073  0.19350958  0.61981897     0.37700
H262        H  0.78518034  0.11318781  0.65076768     0.29600
H263        H  0.92137339  0.15914406  0.52894903     0.29600
H264        H  0.90973625  0.99335027  0.60272890     0.29900
Zr265      Zr  0.43409493  0.53420529  0.87612815     2.17500
O266        O  0.50561520  0.55876674  0.88380202    -0.52500
O267        O  0.44837797  0.45924246  0.87878291    -0.75700
O268        O  0.45284057  0.51816625  0.92517057    -0.82400
O269        O  0.44847272  0.59517155  0.81330854    -0.84200
O270        O  0.39192446  0.51140036  0.95025941    -0.79800
O271        O  0.47548437  0.53651136  0.83115431    -0.91400
O272        O  0.38711896  0.42616006  0.86861986    -0.77400
O273        O  0.37497064  0.49245205  0.88886518    -0.86900
O274        O  0.39595141  0.52100146  0.83345644    -0.86600
O275        O  0.39163573  0.57339444  0.90965478    -0.73300
O276        O  0.41278492  0.60255063  0.86004074    -0.85500
Zr277      Zr  0.27642047  0.58541340  0.86320455     2.26400
Zr278      Zr  0.33177143  0.53001751  0.92144711     2.06300
Zr279      Zr  0.37355257  0.58897054  0.81781753     2.10000
Zr280      Zr  0.33946036  0.47742450  0.84654139     1.78800
O281        O  0.39590820  0.64860339  0.78953974    -0.94300
O282        O  0.29264907  0.42362328  0.86501911    -0.42100
O283        O  0.31555639  0.54478777  0.82936318    -0.78700
O284        O  0.29578872  0.51622856  0.87788607    -0.97400
O285        O  0.31214192  0.59836504  0.90622391    -0.90700
O286        O  0.33439007  0.62851006  0.85122157    -0.93600
C287        C  0.42517518  0.42624242  0.87798006     1.00200
C288        C  0.47204826  0.56321422  0.81079332     1.13100
C289        C  0.43223851  0.51107389  0.94817436     1.03900
O290        O  0.32150533  0.46236079  0.94394501    -0.95700
O291        O  0.25501708  0.51727630  0.92440840    -0.91500
O292        O  0.22934679  0.57374995  0.90220478    -0.84600
C293        C  0.22404106  0.53851355  0.91428625     1.10500
O294        O  0.43721896  0.66232851  0.91497220    -0.97700
Zr295      Zr  0.37096360  0.64069937  0.89361066     1.88900
O296        O  0.25491937  0.65578902  0.87624589    -0.74300
O297        O  0.31709984  0.56661710  0.96546540    -0.53600
O298        O  0.36236968  0.66405732  0.94222839    -0.98300
O299        O  0.39929930  0.70154408  0.86911749    -0.55500
O300        O  0.31248568  0.68974803  0.89288617    -0.74900
C301        C  0.27354202  0.68851472  0.88589510     0.97500
O302        O  0.20897580  0.55992615  0.84572655    -0.63700
O303        O  0.37322384  0.54720315  0.77474736    -0.58500
O304        O  0.25845549  0.62062283  0.82055136    -0.95200
O305        O  0.31747524  0.62646524  0.79404711    -0.93600
O306        O  0.36887617  0.44325001  0.80492773    -0.93900
O307        O  0.28774003  0.45430878  0.81207170    -0.92700
C308        C  0.27830435  0.63307304  0.79871056     1.16300
H309        H  0.41156292  0.50627133  0.81910619     0.32300
H310        H  0.27102565  0.49900784  0.87916114     0.43100
H311        H  0.32596222  0.65506843  0.84339033     0.36700
H312        H  0.40750732  0.57996018  0.92639540     0.33100
H313        H  0.30533414  0.39679222  0.85886174     0.24900
H314        H  0.28683380  0.57356648  0.96455982     0.30900
H315        H  0.35783446  0.69469174  0.94097849     0.36800
H316        H  0.38208898  0.41730854  0.81204547     0.31200
H317        H  0.35610865  0.52220981  0.77928641     0.30100
H318        H  0.38902367  0.64101833  0.76983300     0.31800
H319        H  0.37560808  0.71268844  0.85794641     0.30800
H320        H  0.26851976  0.47844902  0.80990666     0.34800
H321        H  0.21304381  0.55557190  0.82524431     0.27500
H322        H  0.52034245  0.53489572  0.89264681     0.31700
H323        H  0.43429619  0.69267067  0.91892460     0.34600
H324        H  0.35560228  0.56333729  0.76149072     0.27200
H325        H  0.20646483  0.53115159  0.85324210     0.40000
H326        H  0.33700550  0.44228361  0.93184270     0.30100
H327        H  0.29704409  0.42429723  0.88566508     0.37700
H328        H  0.41879750  0.68972818  0.85489909     0.29600
H329        H  0.31900288  0.54463878  0.98007058     0.29600
H330        H  0.50310039  0.58000165  0.89896915     0.29900
Zr331      Zr  0.49533508  0.47777915  0.63167062     2.17500
O332        O  0.51837274  0.54940528  0.62303042    -0.52500
O333        O  0.42082089  0.49317524  0.62903568    -0.75700
O334        O  0.48015137  0.49641407  0.58241609    -0.82400
O335        O  0.55639950  0.49055493  0.69525201    -0.84200
O336        O  0.47148475  0.43537837  0.55787915    -0.79800
O337        O  0.49839543  0.51854945  0.67693342    -0.91400
O338        O  0.38731566  0.43188545  0.63781952    -0.77400
O339        O  0.45351766  0.41880519  0.61824353    -0.86900
O340        O  0.48073640  0.43970991  0.67412740    -0.86600
O341        O  0.53469459  0.43552498  0.59825977    -0.73300
O342        O  0.56311845  0.45639578  0.64887649    -0.85500
Zr343      Zr  0.54562592  0.32004421  0.64356480     2.26400
Zr344      Zr  0.49164270  0.37548382  0.58592901     2.06300
Zr345      Zr  0.54813552  0.41613292  0.69040792     2.10000
Zr346      Zr  0.43731787  0.38354978  0.66038564     1.78800
O347        O  0.60666078  0.43612990  0.72068486    -0.94300
O348        O  0.38137864  0.33952659  0.64156016    -0.42100
O349        O  0.50434631  0.35852290  0.67757636    -0.78700
O350        O  0.47626814  0.33990746  0.62920853    -0.97400
O351        O  0.56018199  0.35625114  0.60121858    -0.90700
O352        O  0.58835421  0.37760190  0.65702799    -0.93600
C353        C  0.38785803  0.46998492  0.62880646     1.00200
C354        C  0.52467981  0.51452129  0.69757482     1.13100
C355        C  0.47205996  0.47556293  0.55963795     1.03900
O356        O  0.42968627  0.36446679  0.55684086    -0.95700
O357        O  0.47527635  0.29941157  0.58333494    -0.91500
O358        O  0.53068883  0.27148751  0.60580553    -0.84600
C359        C  0.49542010  0.26762989  0.59329904     1.10500
O360        O  0.62736079  0.48196179  0.59753897    -0.97700
Zr361      Zr  0.60163705  0.41523308  0.61532047     1.88900
O362        O  0.61659726  0.29975700  0.62996516    -0.74300
O363        O  0.53377125  0.35984820  0.54438714    -0.53600
O364        O  0.62383388  0.41192101  0.56625893    -0.98300
O365        O  0.66309437  0.44085920  0.64072236    -0.55500
O366        O  0.65133456  0.35793202  0.61543526    -0.74900
C367        C  0.64981665  0.31883227  0.62142250     0.97500
O368        O  0.52083798  0.25218577  0.66029467    -0.63700
O369        O  0.50471920  0.41736534  0.73274306    -0.58500
O370        O  0.58072299  0.30070690  0.68566923    -0.95200
O371        O  0.58288309  0.35817902  0.71385953    -0.93600
O372        O  0.40412509  0.41212104  0.70260257    -0.93900
O373        O  0.41363878  0.32992530  0.69317333    -0.92700
C374        C  0.59072901  0.31952500  0.70842609     1.16300
H375        H  0.46584900  0.45549853  0.68832231     0.32300
H376        H  0.45854922  0.31547074  0.62825601     0.43100
H377        H  0.61470386  0.36884362  0.66507377     0.36700
H378        H  0.54153324  0.45132068  0.58159513     0.33100
H379        H  0.35507977  0.35230275  0.64870419     0.24900
H380        H  0.54185502  0.33007471  0.54650406     0.30900
H381        H  0.61509659  0.38377783  0.55968382     0.36800
H382        H  0.37400433  0.41425603  0.69766779     0.31200
H383        H  0.48360904  0.39501987  0.72972190     0.30100
H384        H  0.59807748  0.42836832  0.74003707     0.31800
H385        H  0.66941633  0.41919641  0.65496783     0.30800
H386        H  0.43727149  0.30985191  0.69426122     0.34800
H387        H  0.54622419  0.23440904  0.66168773     0.27500
H388        H  0.49265862  0.56450655  0.61722079     0.31700
H389        H  0.60355836  0.50154649  0.60012150     0.34600
H390        H  0.52307845  0.40633549  0.74780269     0.27200
H391        H  0.51176551  0.25692994  0.68001450     0.40000
H392        H  0.40596085  0.37383475  0.56880566     0.30100
H393        H  0.38120169  0.34536633  0.62108640     0.37700
H394        H  0.65270120  0.46500820  0.65186603     0.29600
H395        H  0.51342693  0.35984307  0.52863544     0.29600
H396        H  0.53578663  0.54785685  0.60575943     0.29900
Zr397      Zr  0.95945534  0.47409811  0.87536878     2.17500
O398        O  0.93583912  0.54586239  0.88282215    -0.52500
O399        O  0.03410678  0.48977733  0.87710471    -0.75700
O400        O  0.97333044  0.49259750  0.92522233    -0.82400
O401        O  0.90011124  0.48694211  0.81090680    -0.84200
O402        O  0.98190622  0.43150039  0.94945459    -0.79800
O403        O  0.95852265  0.51369507  0.82960135    -0.91400
O404        O  0.06698711  0.42791419  0.86888113    -0.77400
O405        O  0.00090858  0.41511013  0.88914045    -0.86900
O406        O  0.97341283  0.43499295  0.83301600    -0.86600
O407        O  0.91905126  0.43211093  0.90833655    -0.73300
O408        O  0.89134436  0.45283131  0.85841662    -0.85500
Zr409      Zr  0.90735428  0.31619086  0.86213925     2.26400
Zr410      Zr  0.96140994  0.37200706  0.92074561     2.06300
Zr411      Zr  0.90556239  0.41265419  0.81660624     2.10000
Zr412      Zr  0.01653109  0.37901115  0.84699188     1.78800
O413        O  0.84500487  0.43566302  0.78938792    -0.94300
O414        O  0.06924152  0.33281211  0.86734250    -0.42100
O415        O  0.94934935  0.35504155  0.82894168    -0.78700
O416        O  0.97635231  0.33600276  0.87739461    -0.97400
O417        O  0.89326319  0.35247870  0.90477669    -0.90700
O418        O  0.86483975  0.37400032  0.84942631    -0.93600
C419        C  0.06696642  0.46645885  0.87721044     1.00200
C420        C  0.93269635  0.50966492  0.80865269     1.13100
C421        C  0.98090113  0.47169407  0.94803067     1.03900
O422        O  0.02324878  0.35655949  0.94894784    -0.95700
O423        O  0.97667982  0.29616864  0.92319190    -0.91500
O424        O  0.92082461  0.26896712  0.90071717    -0.84600
C425        C  0.95639803  0.26477161  0.91274089     1.10500
O426        O  0.82640957  0.47724507  0.91122672    -0.97700
Zr427      Zr  0.85193465  0.41145950  0.89134703     1.88900
O428        O  0.83695191  0.29492273  0.87597383    -0.74300
O429        O  0.91757897  0.35728042  0.96156013    -0.53600
O430        O  0.82758910  0.40735332  0.93993924    -0.98300
O431        O  0.79339974  0.43691991  0.86304263    -0.55500
O432        O  0.80311295  0.35287226  0.89204800    -0.74900
C433        C  0.80425917  0.31378531  0.88559128     0.97500
O434        O  0.93278305  0.24995585  0.84281371    -0.63700
O435        O  0.94612104  0.41168208  0.77303037    -0.58500
O436        O  0.87066648  0.29785246  0.82006800    -0.95200
O437        O  0.86986227  0.35581998  0.79258177    -0.93600
O438        O  0.05317193  0.40604033  0.80577969    -0.93900
O439        O  0.04128230  0.32477744  0.81479686    -0.92700
C440        C  0.86087764  0.31737515  0.79758225     1.16300
H441        H  0.98884473  0.44986557  0.81867514     0.32300
H442        H  0.99378876  0.31143931  0.87827992     0.43100
H443        H  0.83829280  0.36562224  0.84141160     0.36700
H444        H  0.91207026  0.44798876  0.92500582     0.33100
H445        H  0.09634924  0.34344548  0.86002193     0.24900
H446        H  0.93708306  0.34477847  0.97540209     0.30900
H447        H  0.83337910  0.37814900  0.94569732     0.36800
H448        H  0.08336214  0.40330555  0.81042616     0.31200
H449        H  0.96919081  0.39163599  0.77659953     0.30100
H450        H  0.85137766  0.42790553  0.76962646     0.31800
H451        H  0.77783162  0.41158833  0.85699693     0.30800
H452        H  0.01647876  0.31736863  0.80324935     0.34800
H453        H  0.93909857  0.25576983  0.82276936     0.27500
H454        H  0.96179079  0.56172841  0.88715181     0.31700
H455        H  0.79545988  0.47440359  0.91209683     0.34600
H456        H  0.92788513  0.39721873  0.75918156     0.27200
H457        H  0.96080635  0.24598550  0.85137762     0.40000
H458        H  0.04677426  0.36974067  0.93857705     0.30100
H459        H  0.06960321  0.34014830  0.88762838     0.37700
H460        H  0.80651105  0.44756191  0.84554603     0.29600
H461        H  0.91080317  0.38522304  0.96946135     0.29600
H462        H  0.92006357  0.54525897  0.90080666     0.29900
Zr463      Zr  0.02304334  0.53495244  0.62873435     2.17500
O464        O  0.95138159  0.55857030  0.62060734    -0.52500
O465        O  0.00960289  0.45996491  0.62671993    -0.75700
O466        O  0.00472233  0.51914841  0.57939833    -0.82400
O467        O  0.00722169  0.59296923  0.69349005    -0.84200
O468        O  0.06551066  0.51342444  0.55407708    -0.79800
O469        O  0.98235753  0.53407188  0.67422672    -0.91400
O470        O  0.07140503  0.42795208  0.63659844    -0.77400
O471        O  0.08302473  0.49463130  0.61501246    -0.86900
O472        O  0.06208204  0.52248193  0.67103215    -0.86600
O473        O  0.06417256  0.57597708  0.59563582    -0.73300
O474        O  0.04242412  0.60382714  0.64526223    -0.85500
Zr475      Zr  0.17957574  0.59042986  0.64198699     2.26400
Zr476      Zr  0.12494278  0.53455234  0.58300695     2.06300
Zr477      Zr  0.08206700  0.59094582  0.68725969     2.10000
Zr478      Zr  0.11934076  0.48050283  0.65724059     1.78800
O479        O  0.05763170  0.65251122  0.71300016    -0.94300
O480        O  0.16524121  0.42610199  0.63832306    -0.42100
O481        O  0.14118698  0.54831541  0.67530198    -0.78700
O482        O  0.16141126  0.52108372  0.62634417    -0.97400
O483        O  0.14348499  0.60302416  0.59910582    -0.90700
O484        O  0.12067951  0.63199288  0.65451522    -0.93600
C485        C  0.03314288  0.42729524  0.62767323     1.00200
C486        C  0.98507697  0.55989859  0.69531702     1.13100
C487        C  0.02521354  0.51257654  0.55623143     1.03900
O488        O  0.13992948  0.47026809  0.55712646    -0.95700
O489        O  0.20154992  0.52246350  0.57999665    -0.91500
O490        O  0.22845849  0.57732604  0.60399106    -0.84600
C491        C  0.23282865  0.54274037  0.59069165     1.10500
O492        O  0.01807701  0.66750180  0.59141431    -0.97700
Zr493      Zr  0.08370945  0.64365476  0.61234203     1.88900
O494        O  0.20027531  0.66010968  0.62728035    -0.74300
O495        O  0.13732391  0.57483173  0.54036848    -0.53600
O496        O  0.09080825  0.66783477  0.56391492    -0.98300
O497        O  0.05516014  0.70256954  0.63907099    -0.55500
O498        O  0.14135328  0.69380896  0.61296401    -0.74900
C499        C  0.18077881  0.69275231  0.61859964     0.97500
O500        O  0.24666628  0.56896515  0.66208876    -0.63700
O501        O  0.08107388  0.55171739  0.73117184    -0.58500
O502        O  0.19621793  0.62767718  0.68452068    -0.95200
O503        O  0.13797274  0.62689910  0.71212606    -0.93600
O504        O  0.09299621  0.44749403  0.69997187    -0.93900
O505        O  0.17707478  0.45754971  0.68703324    -0.92700
C506        C  0.17640254  0.63664222  0.70721362     1.16300
H507        H  0.04730471  0.50703551  0.68538340     0.32300
H508        H  0.18636711  0.50410592  0.62507201     0.43100
H509        H  0.12850703  0.65864411  0.66264893     0.36700
H510        H  0.04792860  0.58227202  0.57903995     0.33100
H511        H  0.15224803  0.39937922  0.64433492     0.24900
H512        H  0.13766235  0.55359273  0.52510631     0.30900
H513        H  0.12116848  0.66552485  0.55964569     0.36800
H514        H  0.09090692  0.41737635  0.69509473     0.31200
H515        H  0.10696025  0.53458417  0.73057204     0.30100
H516        H  0.06192579  0.64592839  0.73315484     0.31800
H517        H  0.07983448  0.71813795  0.64627547     0.30800
H518        H  0.19307382  0.48339222  0.69134194     0.34800
H519        H  0.23989217  0.55962547  0.68144550     0.27500
H520        H  0.93556048  0.53279747  0.61582937     0.31700
H521        H  0.02166048  0.69798151  0.58837743     0.34600
H522        H  0.08647392  0.57284688  0.74605526     0.27200
H523        H  0.25415064  0.54274794  0.65209924     0.40000
H524        H  0.13099556  0.44758678  0.56998794     0.30100
H525        H  0.16073530  0.42693853  0.61770764     0.37700
H526        H  0.04245235  0.68979825  0.65604028     0.29600
H527        H  0.11083381  0.59040063  0.53738841     0.29600
H528        H  0.95259728  0.57461683  0.60280736     0.29900
Zr529      Zr  0.45662689  0.55333003  0.37868206     2.17500
O530        O  0.43886775  0.48027207  0.38740895    -0.52500
O531        O  0.53149621  0.53959070  0.38045936    -0.75700
O532        O  0.46511007  0.52013005  0.33087068    -0.82400
O533        O  0.46543136  0.60130367  0.45289616    -0.84200
O534        O  0.40252001  0.53151185  0.31117243    -0.79800
O535        O  0.46146119  0.53888853  0.42940969    -0.91400
O536        O  0.56356677  0.59557695  0.36024292    -0.77400
O537        O  0.46556206  0.58843025  0.33523332    -0.86900
O538        O  0.49645432  0.61470738  0.39077942    -0.86600
O539        O  0.38629117  0.56846528  0.36275424    -0.73300
O540        O  0.41657277  0.59728346  0.40996556    -0.85500
Zr541      Zr  0.39955729  0.70615457  0.35984806     2.26400
Zr542      Zr  0.39600554  0.60537796  0.31915417     2.06300
Zr543      Zr  0.45599496  0.65935794  0.42063425     2.10000
Zr544      Zr  0.50901408  0.64609014  0.34618307     1.78800
O545        O  0.41706884  0.68796081  0.46057045    -0.94300
O546        O  0.53682126  0.62294260  0.30090187    -0.42100
O547        O  0.46871220  0.69066016  0.37612210    -0.78700
O548        O  0.44049933  0.66462909  0.32772503    -0.97400
O549        O  0.35666879  0.64709283  0.35086077    -0.90700
O550        O  0.38723160  0.67454372  0.40430281    -0.93600
C551        C  0.56449686  0.56010742  0.37319111     1.00200
C552        C  0.46464097  0.56104688  0.45218593     1.13100
C553        C  0.43909916  0.51595527  0.31005487     1.03900
O554        O  0.42361013  0.59955594  0.27144008    -0.95700
O555        O  0.36406106  0.66001994  0.29081981    -0.91500
O556        O  0.36066166  0.71873451  0.31776971    -0.84600
C557        C  0.35380873  0.69847748  0.29497941     1.10500
O558        O  0.32117684  0.54810380  0.41520895    -0.97700
Zr559      Zr  0.34742337  0.61284104  0.39444595     1.88900
O560        O  0.33117909  0.72773512  0.37569801    -0.74300
O561        O  0.32639271  0.58146479  0.30509638    -0.53600
O562        O  0.28736641  0.58814521  0.36730764    -0.98300
O563        O  0.32860276  0.61742490  0.44417112    -0.55500
O564        O  0.29848149  0.67084907  0.39425820    -0.74900
C565        C  0.29948335  0.70945477  0.38685455     0.97500
O566        O  0.42007521  0.76976133  0.33485957    -0.63700
O567        O  0.51853782  0.67408484  0.44855007    -0.58500
O568        O  0.41703799  0.75942768  0.39379481    -0.95200
O569        O  0.47581938  0.73326452  0.41283045    -0.93600
O570        O  0.56184544  0.69118883  0.36756810    -0.93900
O571        O  0.53340112  0.70329990  0.31658508    -0.92700
C572        C  0.45400443  0.76427548  0.40352317     1.16300
H573        H  0.52136510  0.60942531  0.40176559     0.32300
H574        H  0.44432526  0.67982710  0.31034473     0.43100
H575        H  0.37271810  0.69320392  0.41704807     0.36700
H576        H  0.37088572  0.54268619  0.35988896     0.33100
H577        H  0.54844539  0.59471764  0.30447695     0.24900
H578        H  0.32999597  0.57135974  0.28549990     0.30900
H579        H  0.26241077  0.59717087  0.37820831     0.36800
H580        H  0.55983390  0.68535561  0.38800161     0.31200
H581        H  0.50782253  0.68011155  0.46773663     0.30100
H582        H  0.41677773  0.66519079  0.47466738     0.31800
H583        H  0.32456739  0.64769047  0.44788181     0.30800
H584        H  0.51070136  0.72444311  0.31755345     0.34800
H585        H  0.44626017  0.77940854  0.34401046     0.27500
H586        H  0.46617829  0.46662278  0.39124285     0.31700
H587        H  0.29101903  0.55306707  0.41911444     0.34600
H588        H  0.53340103  0.64699273  0.45027915     0.27200
H589        H  0.42955989  0.76010502  0.31604490     0.40000
H590        H  0.39964795  0.58952316  0.25997545     0.30100
H591        H  0.51170941  0.61790402  0.28908128     0.37700
H592        H  0.35477949  0.61027763  0.45431768     0.29600
H593        H  0.32135662  0.55576194  0.31621121     0.29600
H594        H  0.43010591  0.46892495  0.36889096     0.29900
Zr595      Zr  0.52212020  0.49483726  0.12646950     2.17500
O596        O  0.44879303  0.47572720  0.11958247    -0.52500
O597        O  0.50820095  0.56952429  0.12543869    -0.75700
O598        O  0.48941052  0.50207882  0.17437706    -0.82400
O599        O  0.56538045  0.50417033  0.05133023    -0.84200
O600        O  0.50439731  0.44074440  0.19496732    -0.79800
O601        O  0.50424759  0.50089334  0.07645596    -0.91400
O602        O  0.56588567  0.60195578  0.14336559    -0.77400
O603        O  0.55913074  0.50300127  0.16933965    -0.86900
O604        O  0.58276381  0.53519089  0.11349169    -0.86600
O605        O  0.53871745  0.42449412  0.14105151    -0.73300
O606        O  0.56465525  0.45616449  0.09351565    -0.85500
Zr607      Zr  0.67606526  0.43775661  0.14142268     2.26400
Zr608      Zr  0.57752575  0.43343017  0.18397090     2.06300
Zr609      Zr  0.62601120  0.49621467  0.08212886     2.10000
Zr610      Zr  0.61603279  0.54704310  0.15765370     1.78800
O611        O  0.65362292  0.46264674  0.03984733    -0.94300
O612        O  0.58832938  0.57562783  0.20155926    -0.42100
O613        O  0.65917787  0.50730189  0.12633054    -0.78700
O614        O  0.63604416  0.47820630  0.17468110    -0.97400
O615        O  0.61733412  0.39448204  0.15085150    -0.90700
O616        O  0.64246167  0.42716078  0.09721797    -0.93600
C617        C  0.52950828  0.60260589  0.13135950     1.00200
C618        C  0.52501297  0.50366785  0.05311662     1.13100
C619        C  0.48686924  0.47644325  0.19541978     1.03900
O620        O  0.58012015  0.46010544  0.23200707    -0.95700
O621        O  0.63325288  0.39907710  0.21013258    -0.91500
O622        O  0.69218800  0.39934363  0.18328275    -0.84600
C623        C  0.67215336  0.39049183  0.20584665     1.10500
O624        O  0.51666855  0.36495769  0.08414854    -0.97700
Zr625      Zr  0.58122923  0.38685299  0.10755810     1.88900
O626        O  0.69610821  0.36868861  0.12558498    -0.74300
O627        O  0.54824838  0.36702630  0.19976162    -0.53600
O628        O  0.54972165  0.32743770  0.13180434    -0.98300
O629        O  0.58915193  0.36767872  0.05801411    -0.55500
O630        O  0.63795323  0.33648921  0.10819610    -0.74900
C631        C  0.67689305  0.33700410  0.11502822     0.97500
O632        O  0.74041931  0.46044913  0.16501017    -0.63700
O633        O  0.63631187  0.56127234  0.05619146    -0.58500
O634        O  0.72654484  0.45512772  0.10572740    -0.95200
O635        O  0.70043819  0.51549181  0.08960036    -0.93600
O636        O  0.66169458  0.60089289  0.13816686    -0.93900
O637        O  0.67336803  0.56723378  0.18881372    -0.92700
C638        C  0.73158202  0.49286288  0.09783704     1.16300
H639        H  0.57694462  0.55983571  0.10257103     0.32300
H640        H  0.65217779  0.48157460  0.19175441     0.43100
H641        H  0.66055796  0.41307563  0.08387067     0.36700
H642        H  0.51310482  0.40899238  0.14450274     0.33100
H643        H  0.59621984  0.60563185  0.20112332     0.24900
H644        H  0.56986916  0.34586390  0.19502580     0.30900
H645        H  0.57361503  0.31133681  0.13951715     0.36800
H646        H  0.65115015  0.60510569  0.11876731     0.31200
H647        H  0.63951548  0.55248251  0.03627589     0.30100
H648        H  0.67904372  0.47903814  0.03504684     0.31800
H649        H  0.61835502  0.35742788  0.05609516     0.30800
H650        H  0.69797425  0.55139309  0.18173061     0.34800
H651        H  0.74646997  0.48849889  0.15721942     0.27500
H652        H  0.43325819  0.50236416  0.12199410     0.31700
H653        H  0.52010620  0.33466126  0.08019237     0.34600
H654        H  0.60889377  0.57584597  0.05683790     0.27200
H655        H  0.73226482  0.46655892  0.18474964     0.40000
H656        H  0.59577361  0.48682477  0.23058012     0.30100
H657        H  0.55748930  0.57574061  0.19896167     0.37700
H658        H  0.58903214  0.39476515  0.04791570     0.29600
H659        H  0.54873493  0.36884963  0.22059720     0.29600
H660        H  0.44127306  0.45899631  0.13637747     0.29900
Zr661      Zr  0.51937596  0.03106448  0.37969243     2.17500
O662        O  0.44624458  0.05067661  0.38673324    -0.52500
O663        O  0.50440652  0.95646172  0.37848924    -0.75700
O664        O  0.48620606  0.02750959  0.33168065    -0.82400
O665        O  0.56123504  0.01992905  0.45482329    -0.84200
O666        O  0.50480042  0.08838942  0.31193077    -0.79800
O667        O  0.50037748  0.02507941  0.42967193    -0.91400
O668        O  0.56209665  0.92444236  0.36008527    -0.77400
O669        O  0.55736588  0.02337135  0.33715044    -0.86900
O670        O  0.57940617  0.98965337  0.39240663    -0.86600
O671        O  0.53728917  0.10162215  0.36625259    -0.73300
O672        O  0.56190640  0.06847405  0.41324425    -0.85500
Zr673      Zr  0.67535318  0.08726649  0.36700299     2.26400
Zr674      Zr  0.57736727  0.09293816  0.32390179     2.06300
Zr675      Zr  0.62245442  0.02753196  0.42461716     2.10000
Zr676      Zr  0.61399981  0.97895459  0.34848141     1.78800
O677        O  0.65202220  0.06207215  0.46596993    -0.94300
O678        O  0.58955724  0.95702343  0.30206664    -0.42100
O679        O  0.65631052  0.01769852  0.38059510    -0.78700
O680        O  0.63593716  0.04790452  0.33281155    -0.97400
O681        O  0.61711901  0.13103253  0.35756229    -0.90700
O682        O  0.64025758  0.09699276  0.41076767    -0.93600
C683        C  0.52524534  0.92357103  0.37142963     1.00200
C684        C  0.52095204  0.02155430  0.45300874     1.13100
C685        C  0.48572057  0.05352572  0.31073278     1.03900
O686        O  0.57767889  0.06416712  0.27636050    -0.95700
O687        O  0.63221063  0.12635790  0.29732922    -0.91500
O688        O  0.69189553  0.12090748  0.32301415    -0.84600
C689        C  0.67167849  0.13172070  0.30091418     1.10500
O690        O  0.51348304  0.15988235  0.42189096    -0.97700
Zr691      Zr  0.57962959  0.13805705  0.40046373     1.88900
O692        O  0.69451792  0.15598445  0.38381286    -0.74300
O693        O  0.55333826  0.16186976  0.30901507    -0.53600
O694        O  0.55351078  0.20049054  0.37689012    -0.98300
O695        O  0.58450233  0.15404239  0.45066056    -0.55500
O696        O  0.63686290  0.18773704  0.40238323    -0.74900
C697        C  0.67569636  0.18717044  0.39525222     0.97500
O698        O  0.74563553  0.06940351  0.35021279    -0.63700
O699        O  0.63017644  0.96276878  0.45118391    -0.58500
O700        O  0.72401126  0.06547144  0.40280201    -0.95200
O701        O  0.69575726  0.00490544  0.41678952    -0.93600
O702        O  0.65500350  0.92123991  0.36746121    -0.93900
O703        O  0.67527535  0.95682339  0.32147499    -0.92700
C704        C  0.72778859  0.02706420  0.40945863     1.16300
H705        H  0.57279856  0.96442994  0.40254275     0.32300
H706        H  0.65234837  0.04476231  0.31577406     0.43100
H707        H  0.65830752  0.11054312  0.42439110     0.36700
H708        H  0.51204239  0.11748740  0.36272124     0.33100
H709        H  0.60257255  0.92925781  0.29884629     0.24900
H710        H  0.54101817  0.15738090  0.29010213     0.30900
H711        H  0.57529071  0.20741237  0.36273487     0.36800
H712        H  0.66063248  0.92942600  0.38724039     0.31200
H713        H  0.62922201  0.97143425  0.47122442     0.30100
H714        H  0.63565062  0.05102495  0.48205250     0.31800
H715        H  0.61493638  0.15575067  0.45474348     0.30800
H716        H  0.69800470  0.97594987  0.32765679     0.34800
H717        H  0.74159828  0.05663051  0.33136756     0.27500
H718        H  0.43005087  0.02598394  0.38023673     0.31700
H719        H  0.51768435  0.18945118  0.42762926     0.34600
H720        H  0.60369297  0.94711314  0.44819035     0.27200
H721        H  0.76006206  0.09638003  0.34668724     0.40000
H722        H  0.58224629  0.03374046  0.27880131     0.30100
H723        H  0.55927865  0.95090378  0.30453430     0.37700
H724        H  0.57512057  0.12809958  0.46016798     0.29600
H725        H  0.52906223  0.16842794  0.32132321     0.29600
H726        H  0.44080559  0.07240582  0.37235909     0.29900
Zr727      Zr  0.45579509  0.96567874  0.12989432     2.17500
O728        O  0.43284489  0.03794808  0.12441883    -0.52500
O729        O  0.53034106  0.98230060  0.12945346    -0.75700
O730        O  0.45812937  0.99820974  0.17829409    -0.82400
O731        O  0.47154901  0.92872457  0.05364198    -0.84200
O732        O  0.39993730  0.97305435  0.19900043    -0.79800
O733        O  0.46137544  0.98764008  0.08017313    -0.91400
O734        O  0.56454563  0.92438073  0.14506982    -0.77400
O735        O  0.46718882  0.92505944  0.17100689    -0.86900
O736        O  0.49817967  0.90779800  0.11420853    -0.86600
O737        O  0.38694877  0.94380117  0.14547299    -0.73300
O738        O  0.41845450  0.92479667  0.09536603    -0.85500
Zr739      Zr  0.40437994  0.80765579  0.13796289     2.26400
Zr740      Zr  0.39954180  0.90059613  0.18600685     2.06300
Zr741      Zr  0.46045205  0.86595204  0.08131721     2.10000
Zr742      Zr  0.51217315  0.87041579  0.15641546     1.78800
O743        O  0.42485024  0.84362471  0.03841603    -0.94300
O744        O  0.53571054  0.89311659  0.20290361    -0.42100
O745        O  0.47319139  0.82913755  0.12369617    -0.78700
O746        O  0.44495029  0.84430206  0.17301779    -0.97400
O747        O  0.36052723  0.86423592  0.15122108    -0.90700
O748        O  0.39184863  0.84595158  0.09594199    -0.93600
C749        C  0.56408889  0.96155923  0.13452186     1.00200
C750        C  0.46776873  0.96863525  0.05638233     1.13100
C751        C  0.43294820  0.99539830  0.19976001     1.03900
O752        O  0.43692892  0.89393960  0.23049744    -0.95700
O753        O  0.36461175  0.84173705  0.20840774    -0.91500
O754        O  0.36805019  0.78522706  0.17946293    -0.84600
C755        C  0.35753642  0.80305279  0.20254586     1.10500
O756        O  0.33201271  0.97434685  0.09318484    -0.97700
Zr757      Zr  0.35020040  0.90461155  0.11002953     1.88900
O758        O  0.33516314  0.78813242  0.12191484    -0.74300
O759        O  0.33560331  0.91924733  0.21148523    -0.53600
O760        O  0.28748274  0.92836972  0.13477059    -0.98300
O761        O  0.32946862  0.90347996  0.06060082    -0.55500
O762        O  0.30094786  0.84701590  0.10806700    -0.74900
C763        C  0.30260242  0.80756185  0.11297389     0.97500
O764        O  0.42871813  0.73923970  0.15392641    -0.63700
O765        O  0.52389166  0.85871699  0.05295920    -0.58500
O766        O  0.42345323  0.76245537  0.09952895    -0.95200
O767        O  0.48355186  0.79222097  0.08599879    -0.93600
O768        O  0.56763843  0.83115060  0.13279635    -0.93900
O769        O  0.54016471  0.81054352  0.18188836    -0.92700
C770        C  0.46181100  0.75951277  0.09232605     1.16300
H771        H  0.52264499  0.91558061  0.10347631     0.32300
H772        H  0.44940805  0.82627825  0.18905489     0.43100
H773        H  0.37797006  0.82893555  0.08187686     0.36700
H774        H  0.37030810  0.96804224  0.15040896     0.33100
H775        H  0.56505312  0.88314246  0.20432201     0.24900
H776        H  0.34508326  0.93133929  0.22963794     0.30900
H777        H  0.28926636  0.91514440  0.15356446     0.36800
H778        H  0.57964252  0.85079130  0.11883540     0.31200
H779        H  0.54678374  0.85548363  0.06686841     0.30100
H780        H  0.43569811  0.86251368  0.02358008     0.31800
H781        H  0.33019600  0.87358769  0.05500605     0.30800
H782        H  0.52291998  0.78651650  0.17545374     0.34800
H783        H  0.43670946  0.74301389  0.17393362     0.27500
H784        H  0.45726558  0.05498979  0.13040438     0.31700
H785        H  0.30176152  0.97303648  0.08849272     0.34600
H786        H  0.52154488  0.83087670  0.04381228     0.27200
H787        H  0.40346115  0.72113512  0.15429301     0.40000
H788        H  0.46086515  0.91360530  0.22902450     0.30100
H789        H  0.53830019  0.92397747  0.20161288     0.37700
H790        H  0.35349166  0.91622251  0.05048472     0.29600
H791        H  0.32337258  0.94307295  0.20103531     0.29600
H792        H  0.41163354  0.04227175  0.13943004     0.29900
Zr793      Zr  0.99622070  0.55319015  0.13018279     2.17500
O794        O  0.01280286  0.47987083  0.12122418    -0.52500
O795        O  0.92130310  0.53950137  0.13156469    -0.75700
O796        O  0.99445199  0.51797575  0.17739749    -0.82400
O797        O  0.98475320  0.59745786  0.05536628    -0.84200
O798        O  0.05582573  0.53690174  0.19637379    -0.79800
O799        O  0.98983989  0.53596709  0.07950925    -0.91400
O800        O  0.88894401  0.59736352  0.14933420    -0.77400
O801        O  0.98741304  0.59015379  0.17327484    -0.86900
O802        O  0.95532520  0.61373019  0.11820931    -0.86600
O803        O  0.06646440  0.57130917  0.14495106    -0.73300
O804        O  0.03408306  0.59598028  0.09733450    -0.85500
Zr805      Zr  0.05297092  0.70844754  0.14529049     2.26400
Zr806      Zr  0.05661873  0.61028629  0.18790726     2.06300
Zr807      Zr  0.99343511  0.65697814  0.08665869     2.10000
Zr808      Zr  0.94394730  0.64775052  0.16226963     1.78800
O809        O  0.02606048  0.68516571  0.04431021    -0.94300
O810        O  0.92031438  0.62193458  0.20786101    -0.42100
O811        O  0.98318334  0.69066552  0.13073671    -0.78700
O812        O  0.01268696  0.66921143  0.17890417    -0.97400
O813        O  0.09575177  0.64945261  0.15465908    -0.90700
O814        O  0.06278480  0.67427620  0.10117597    -0.93600
C815        C  0.88828654  0.56069559  0.13786627     1.00200
C816        C  0.98593471  0.55725855  0.05645185     1.13100
C817        C  0.02105707  0.51774111  0.19803649     1.03900
O818        O  0.01767408  0.61171928  0.23213622    -0.95700
O819        O  0.09325341  0.66478591  0.21361303    -0.91500
O820        O  0.09328703  0.72359952  0.18700984    -0.84600
C821        C  0.10256562  0.70333050  0.20938028     1.10500
O822        O  0.12514518  0.54643604  0.09113005    -0.97700
Zr823      Zr  0.10338121  0.61345016  0.11117394     1.88900
O824        O  0.12065693  0.72898600  0.12722512    -0.74300
O825        O  0.11919942  0.58217375  0.21049002    -0.53600
O826        O  0.16861290  0.58847283  0.13196188    -0.98300
O827        O  0.11445041  0.61687332  0.06040546    -0.55500
O828        O  0.15255279  0.67126291  0.10897347    -0.74900
C829        C  0.15184725  0.71024662  0.11565612     0.97500
O830        O  0.03319419  0.77414890  0.16833092    -0.63700
O831        O  0.92594961  0.66643850  0.06329618    -0.58500
O832        O  0.03286669  0.75897445  0.11030389    -0.95200
O833        O  0.97372362  0.73088768  0.09277246    -0.93600
O834        O  0.88463462  0.68718015  0.14384963    -0.93900
O835        O  0.92402242  0.70921038  0.18976064    -0.92700
C836        C  0.99546711  0.76262645  0.10105678     1.16300
H837        H  0.93021284  0.60752585  0.10768274     0.32300
H838        H  0.00952972  0.68555984  0.19596358     0.43100
H839        H  0.07631553  0.69213724  0.08753549     0.36700
H840        H  0.08262334  0.54614048  0.14808926     0.33100
H841        H  0.89165887  0.63349428  0.21015096     0.24900
H842        H  0.14275980  0.59947973  0.20341416     0.30900
H843        H  0.17235466  0.60566168  0.14918250     0.36800
H844        H  0.89639357  0.70337924  0.12793404     0.31200
H845        H  0.93320330  0.67163167  0.04332709     0.30100
H846        H  0.01909149  0.66479811  0.02924879     0.31800
H847        H  0.12587140  0.64523963  0.05694635     0.30800
H848        H  0.94342989  0.73152391  0.18337576     0.31600
H849        H  0.00568623  0.78182337  0.16018491     0.27500
H850        H  0.99262807  0.46391521  0.13291902     0.31700
H851        H  0.15311609  0.55150636  0.08264831     0.34600
H852        H  0.91240054  0.63851318  0.06322168     0.27200
H853        H  0.02622226  0.76644929  0.18798350     0.40000
H854        H  0.02170468  0.64035002  0.23974491     0.30100
H855        H  0.91585723  0.59148707  0.20507781     0.37700
H856        H  0.08586651  0.61751967  0.05222372     0.29600
H857        H  0.11648463  0.58977921  0.23065506     0.29600
H858        H  0.04032838  0.47553292  0.13043029     0.29900
Zr859      Zr  0.93199926  0.49047190  0.37786968     2.17500
O860        O  0.00475328  0.46978502  0.38518160    -0.52500
O861        O  0.94722362  0.56539492  0.37902820    -0.75700
O862        O  0.96637955  0.49293734  0.33028374    -0.82400
O863        O  0.89118135  0.50107485  0.45356617    -0.84200
O864        O  0.94464484  0.43280628  0.31075782    -0.79800
O865        O  0.95160782  0.49670552  0.42778092    -0.91400
O866        O  0.88922689  0.59867495  0.36254972    -0.77400
O867        O  0.89356062  0.50135412  0.33570295    -0.86900
O868        O  0.87252654  0.53139618  0.39228846    -0.86600
O869        O  0.91212304  0.42147740  0.36166288    -0.73300
O870        O  0.88974399  0.45159858  0.41070774    -0.85500
Zr871      Zr  0.77507964  0.43692478  0.36507980     2.26400
Zr872      Zr  0.87103804  0.43343333  0.31983982     2.06300
Zr873      Zr  0.82964429  0.49259907  0.42379383     2.10000
Zr874      Zr  0.83745313  0.54536944  0.34915202     1.78800
O875        O  0.80388537  0.45702333  0.46574197    -0.94300
O876        O  0.86439039  0.57095844  0.30428177    -0.42100
O877        O  0.79464938  0.50569866  0.38056531    -0.78700
O878        O  0.81350964  0.47809858  0.33145356    -0.97400
O879        O  0.83262153  0.39346884  0.35301988    -0.90700
O880        O  0.81122663  0.42416235  0.40800284    -0.93600
C881        C  0.92606262  0.59879517  0.37374883     1.00200
C882        C  0.93147907  0.50046297  0.45134633     1.13100
C883        C  0.96527462  0.46673415  0.30936089     1.03900
O884        O  0.86871038  0.47335995  0.27623606    -0.95700
O885        O  0.81347995  0.39866188  0.29538858    -0.91500
O886        O  0.75498440  0.40178995  0.32254895    -0.84600
C887        C  0.77435953  0.39155539  0.29995314     1.10500
O888        O  0.93814270  0.35978957  0.41401526    -0.97700
Zr889      Zr  0.87100708  0.38331213  0.39514330     1.88900
O890        O  0.75491459  0.36832755  0.38122245    -0.74300
O891        O  0.89615714  0.37212640  0.29405667    -0.53600
O892        O  0.89136295  0.32250917  0.36703370    -0.98300
O893        O  0.87126081  0.36240420  0.44448020    -0.55500
O894        O  0.81279884  0.33515545  0.39786931    -0.74900
C895        C  0.77361149  0.33661427  0.39188962     0.97500
O896        O  0.70785497  0.45629568  0.34428689    -0.63700
O897        O  0.82362454  0.55678288  0.45141646    -0.58500
O898        O  0.72785983  0.45558024  0.40260016    -0.95200
O899        O  0.75579701  0.51554747  0.41788816    -0.93600
O900        O  0.79844350  0.60231487  0.37117445    -0.93900
O901        O  0.77821600  0.57062094  0.32165359    -0.92700
C902        C  0.72377965  0.49355828  0.41026164     1.16300
H903        H  0.87936590  0.55579786  0.40338473     0.32300
H904        H  0.79638595  0.48243617  0.31491548     0.43100
H905        H  0.79379812  0.40996672  0.42164890     0.36700
H906        H  0.93712447  0.40527088  0.35770886     0.33100
H907        H  0.85508244  0.60050792  0.30338060     0.24900
H908        H  0.88080508  0.34814672  0.30234242     0.30900
H909        H  0.91831960  0.33033591  0.35805853     0.36800
H910        H  0.79112767  0.59184506  0.39015747     0.31200
H911        H  0.80795829  0.57650761  0.43930546     0.30100
H912        H  0.77296485  0.45670641  0.46358431     0.31800
H913        H  0.84265336  0.35159601  0.44823388     0.30800
H914        H  0.75509793  0.55086656  0.32594253     0.34800
H915        H  0.68611861  0.44255131  0.35598398     0.27500
H916        H  0.02153089  0.49225379  0.37625591     0.31700
H917        H  0.93803230  0.32889295  0.41212937     0.34600
H918        H  0.80376798  0.54973575  0.46675266     0.27200
H919        H  0.70477337  0.48662947  0.34817495     0.40000
H920        H  0.85065983  0.45679729  0.26338794     0.30100
H921        H  0.89523094  0.57279304  0.30673839     0.37700
H922        H  0.87257630  0.38916716  0.45505720     0.29600
H923        H  0.88477374  0.37486162  0.27474418     0.29600
H924        H  0.00875300  0.44508653  0.37278252     0.29900
Zr925      Zr  0.99421673  0.96401433  0.37638419     2.17500
O926        O  0.01275760  0.03758968  0.38204378    -0.52500
O927        O  0.91918157  0.97876460  0.37704557    -0.75700
O928        O  0.99125663  0.99633935  0.32826408    -0.82400
O929        O  0.98281807  0.92646141  0.45265178    -0.84200
O930        O  0.05075457  0.97409943  0.30782136    -0.79800
O931        O  0.98914049  0.98563758  0.42611961    -0.91400
O932        O  0.88602758  0.92074708  0.36031018    -0.77400
O933        O  0.98440097  0.92393283  0.33468767    -0.86900
O934        O  0.95268230  0.90526040  0.39115499    -0.86600
O935        O  0.06392160  0.94400787  0.36130485    -0.73300
O936        O  0.03233203  0.92329777  0.41035975    -0.85500
Zr937      Zr  0.04811251  0.80758256  0.36629950     2.26400
Zr938      Zr  0.05301724  0.90162325  0.31990257     2.06300
Zr939      Zr  0.99087386  0.86378358  0.42380874     2.10000
Zr940      Zr  0.93985729  0.86841208  0.34835095     1.78800
O941        O  0.02416376  0.84075463  0.46724964    -0.94300
O942        O  0.91238717  0.89048777  0.30282869    -0.42100
O943        O  0.97888092  0.82717576  0.38090876    -0.78700
O944        O  0.00787587  0.84450381  0.33161745    -0.97400
O945        O  0.09189930  0.86470359  0.35425199    -0.90700
O946        O  0.05978639  0.84494209  0.40903989    -0.93600
C947        C  0.88575476  0.95773306  0.37133397     1.00200
C948        C  0.98484355  0.96652991  0.44994930     1.13100
C949        C  0.01673014  0.99470614  0.30693696     1.03900
O950        O  0.01863410  0.89574825  0.27422979    -0.95700
O951        O  0.08954756  0.84447631  0.29645262    -0.91500
O952        O  0.08691747  0.78773108  0.32495030    -0.84600
C953        C  0.09772177  0.80603835  0.30214468     1.10500
O954        O  0.12239072  0.97138325  0.41613148    -0.97700
Zr955      Zr  0.10119640  0.90415324  0.39609522     1.88900
O956        O  0.11644051  0.78744796  0.38251048    -0.74300
O957        O  0.11827367  0.92375580  0.29741747    -0.53600
O958        O  0.16277306  0.93134405  0.37168030    -0.98300
O959        O  0.12019741  0.89973914  0.44575510    -0.55500
O960        O  0.15083950  0.84660834  0.39591387    -0.74900
C961        C  0.14914852  0.80710081  0.39092507     0.97500
O962        O  0.02437096  0.73977401  0.34858252    -0.63700
O963        O  0.92517877  0.85586194  0.44975492    -0.58500
O964        O  0.03117429  0.76143391  0.40434506    -0.95200
O965        O  0.97064214  0.78902948  0.41920688    -0.93600
O966        O  0.88576387  0.82681752  0.37134860    -0.93900
O967        O  0.91503538  0.80952401  0.32018245    -0.92700
C968        C  0.99319147  0.75715029  0.41204815     1.16300
H969        H  0.92800607  0.91248791  0.40183212     0.32300
H970        H  0.00406496  0.82666811  0.31529018     0.43100
H971        H  0.07372113  0.82796206  0.42298786     0.36700
H972        H  0.08014582  0.96876615  0.35689139     0.33100
H973        H  0.88147058  0.88982824  0.30508383     0.24900
H974        H  0.10988926  0.93634605  0.27923565     0.30900
H975        H  0.18699606  0.92213309  0.38315034     0.36800
H976        H  0.88354752  0.83886862  0.39054808     0.31200
H977        H  0.93272361  0.86100722  0.46969744     0.30100
H978        H  0.02490609  0.80981873  0.46577644     0.31800
H979        H  0.13095258  0.87093468  0.44838748     0.30800
H980        H  0.93464144  0.78641385  0.32462538     0.34800
H981        H  0.01498373  0.74502309  0.32903103     0.27500
H982        H  0.98862064  0.05311825  0.37411408     0.31700
H983        H  0.15180053  0.96761250  0.42238073     0.34600
H984        H  0.90773005  0.88024541  0.44448029     0.27200
H985        H  0.05002124  0.72248139  0.34664275     0.40000
H986        H  0.99376554  0.87777984  0.27746713     0.30100
H987        H  0.91928856  0.92065344  0.30137205     0.37700
H988        H  0.09302236  0.90013621  0.45592746     0.29600
H989        H  0.12871327  0.94750572  0.30891837     0.29600
H990        H  0.03589612  0.04224509  0.36844911     0.29900
Zr991      Zr  0.92783026  0.02844840  0.12735013     2.17500
O992        O  0.00096267  0.04860831  0.12093245    -0.52500
O993        O  0.94253811  0.95389744  0.12703794    -0.75700
O994        O  0.96122293  0.02425297  0.17517611    -0.82400
O995        O  0.88827767  0.01957593  0.05136737    -0.84200
O996        O  0.94026780  0.08392280  0.19569549    -0.79800
O997        O  0.94843308  0.02313906  0.07736965    -0.91400
O998        O  0.88384122  0.92074639  0.14281576    -0.77400
O999        O  0.88823665  0.01741259  0.16907259    -0.86900
O1000       O  0.86823673  0.98779221  0.11258234    -0.86600
O1001       O  0.90893509  0.09768137  0.14336847    -0.73300
O1002       O  0.88673911  0.06782445  0.09431166    -0.85500
Zr1003     Zr  0.77129629  0.08396414  0.13931730     2.26400
Zr1004     Zr  0.86722529  0.08570215  0.18476472     2.06300
Zr1005     Zr  0.82641592  0.02730082  0.08087451     2.10000
Zr1006     Zr  0.83150802  0.97428443  0.15527854     1.78800
O1007       O  0.80134031  0.05964208  0.03766312    -0.94300
O1008       O  0.85373907  0.94985639  0.20152099    -0.42100
O1009       O  0.79012445  0.01498610  0.12378674    -0.78700
O1010       O  0.80870215  0.04197433  0.17293408    -0.97400
O1011       O  0.82949223  0.12636892  0.15164933    -0.90700
O1012       O  0.80843037  0.09599204  0.09657942    -0.93600
C1013       C  0.92129715  0.92063000  0.13242902     1.00200
C1014       C  0.92850550  0.02020635  0.05367986     1.13100
C1015       C  0.96053056  0.04976717  0.19649326     1.03900
O1016       O  0.86715988  0.05062829  0.23024797    -0.95700
O1017       O  0.81075592  0.11858335  0.21048186    -0.91500
O1018       O  0.75286384  0.11819606  0.18275742    -0.84600
C1019       C  0.77204760  0.12681499  0.20571432     1.10500
O1020       O  0.93547808  0.16286106  0.09232068    -0.97700
Zr1021     Zr  0.86845658  0.13631201  0.10966612     1.88900
O1022       O  0.75201196  0.15321819  0.12403960    -0.74300
O1023       O  0.88808141  0.15183095  0.20648029    -0.53600
O1024       O  0.89238983  0.19793291  0.13561539    -0.98300
O1025       O  0.86871951  0.15249565  0.05951509    -0.55500
O1026       O  0.81070393  0.18533106  0.10744833    -0.74900
C1027       C  0.77152684  0.18474642  0.11372424     0.97500
O1028       O  0.70182498  0.06265357  0.15568312    -0.63700
O1029       O  0.81881603  0.96110742  0.05555532    -0.58500
O1030       O  0.72482033  0.06816743  0.10100520    -0.95200
O1031       O  0.75164387  0.00769692  0.08570006    -0.93600
O1032       O  0.78997835  0.91979891  0.13242010    -0.93900
O1033       O  0.77184634  0.94723093  0.18179416    -0.92700
C1034       C  0.72008774  0.03028845  0.09336607     1.16300
H1035       H  0.87529763  0.96321694  0.10170844     0.32300
H1036       H  0.79126933  0.03772161  0.18937663     0.43100
H1037       H  0.79134851  0.11021325  0.08279467     0.36700
H1038       H  0.93398503  0.11357929  0.14771147     0.33100
H1039       H  0.84421192  0.92036037  0.20243467     0.24900
H1040       H  0.90194850  0.14412965  0.22438356     0.30900
H1041       H  0.86757098  0.20769442  0.14637405     0.36800
H1042       H  0.80674883  0.91141844  0.11574600     0.31200
H1043       H  0.81440914  0.96928831  0.03568240     0.30100
H1044       H  0.82647673  0.07318403  0.02942777     0.31800
H1045       H  0.83883144  0.15228188  0.05382579     0.30800
H1046       H  0.74784944  0.96474129  0.17576373     0.34800
H1047       H  0.70619353  0.05114412  0.17479842     0.27500
H1048       H  0.01718747  0.02755893  0.13163264     0.31700
H1049       H  0.92988611  0.19195046  0.08617749     0.34600
H1050       H  0.84695866  0.94794296  0.05571977     0.27200
H1051       H  0.68592590  0.08896472  0.15861646     0.40000
H1052       H  0.83973028  0.03610097  0.23118311     0.30100
H1053       H  0.88472186  0.94783906  0.20029726     0.37700
H1054       H  0.88086631  0.12732847  0.05036434     0.29600
H1055       H  0.91094874  0.16275864  0.19440134     0.29600
H1056       H  0.00403302  0.07485895  0.13192320     0.29900
C1057       C  0.97658081  0.04525426  0.27604425    -0.14500
C1058       C  0.00555494  0.01267430  0.27891831     0.07700
C1059       C  0.02225616  0.99426847  0.25410374    -0.14500
C1060       C  0.00865619  0.00645810  0.22724448    -0.14500
C1061       C  0.97922247  0.03864679  0.22435772     0.07700
C1062       C  0.96425543  0.05860240  0.24915292    -0.14500
H1063       H  0.96314750  0.06009914  0.29452238     0.11700
H1064       H  0.04479009  0.96900961  0.25538551     0.11700
H1065       H  0.02069958  0.99031157  0.20882656     0.11700
H1066       H  0.94147537  0.08365809  0.24790730     0.11700
C1067       C  0.91684994  0.67467588  0.38689674    -0.14500
C1068       C  0.94316233  0.63941970  0.38405791     0.07700
C1069       C  0.98464262  0.64225519  0.39397923    -0.14500
C1070       C  0.99989193  0.67978894  0.40531909    -0.14500
C1071       C  0.97399344  0.71540575  0.40732094     0.07700
C1072       C  0.93203861  0.71216593  0.39851450    -0.14500
H1073       H  0.88442565  0.67336959  0.38009867     0.11700
H1074       H  0.00559469  0.61560842  0.39262969     0.11700
H1075       H  0.03256601  0.68143968  0.41156065     0.11700
H1076       H  0.91159101  0.73925415  0.39916360     0.11700
C1077       C  0.93204469  0.80713261  0.10924725    -0.14500
C1078       C  0.97543572  0.80411854  0.10420838     0.07700
C1079       C  0.00059160  0.83989961  0.10794766    -0.14500
C1080       C  0.98305798  0.87746408  0.11740290    -0.14500
C1081       C  0.93997806  0.88010508  0.12365650     0.07700
C1082       C  0.91451252  0.84470803  0.11900960    -0.14500
H1083       H  0.91197262  0.77992255  0.10700440     0.11700
H1084       H  0.03419827  0.83845294  0.10448298     0.11700
H1085       H  0.00346456  0.90429107  0.12029790     0.11700
H1086       H  0.88103276  0.84600922  0.12296650     0.11700
C1087       C  0.12797895  0.77054207  0.22996710    -0.14500
C1088       C  0.12083008  0.72731733  0.23296867     0.07700
C1089       C  0.12074118  0.70994785  0.26010163    -0.14500
C1090       C  0.11899720  0.73613338  0.28359265    -0.14500
C1091       C  0.11731675  0.77984209  0.28009396     0.07700
C1092       C  0.12602978  0.79676968  0.25347105    -0.14500
H1093       H  0.12978786  0.78470616  0.20930048     0.11700
H1094       H  0.11669801  0.67657518  0.26317740     0.11700
H1095       H  0.11398935  0.72202026  0.30404288     0.11700
H1096       H  0.12652304  0.83034036  0.25027796     0.11700
C1097       C  0.02946524  0.51705817  0.25069917    -0.14500
C1098       C  0.00997998  0.50044482  0.22624836     0.07700
C1099       C  0.97796057  0.47091621  0.22969622    -0.14500
C1100       C  0.96548670  0.45870586  0.25678525    -0.14500
C1101       C  0.98341783  0.47693000  0.28122235     0.07700
C1102       C  0.01574348  0.50615039  0.27781517    -0.14500
H1103       H  0.05431136  0.54006542  0.24895128     0.11700
H1104       H  0.96222489  0.45765799  0.21151804     0.11700
H1105       H  0.94036572  0.43600419  0.25853240     0.11700
H1106       H  0.03011896  0.52078602  0.29602743     0.11700
C1107       C  0.22468805  0.80282652  0.11000681    -0.14500
C1108       C  0.26396945  0.78293248  0.10922826     0.07700
C1109       C  0.26582234  0.73904115  0.10741870    -0.14500
C1110       C  0.22906942  0.71535340  0.10791047    -0.14500
C1111       C  0.18993782  0.73517334  0.11061358     0.07700
C1112       C  0.18798063  0.77913065  0.11086351    -0.14500
H1113       H  0.22233106  0.83662207  0.11139143     0.11700
H1114       H  0.29573045  0.72293843  0.10653480     0.11700
H1115       H  0.23146243  0.68150884  0.10762988     0.11700
H1116       H  0.15814373  0.79521649  0.11263422     0.11700
C1117       C  0.64040659  0.95418912  0.12192641    -0.14500
C1118       C  0.60437063  0.97951764  0.12427797     0.07700
C1119       C  0.60586036  0.02041320  0.11334790    -0.14500
C1120       C  0.64273621  0.03593422  0.10120966    -0.14500
C1121       C  0.67891293  0.01082893  0.09936938     0.07700
C1122       C  0.67716100  0.96959832  0.10948571    -0.14500
H1123       H  0.64020630  0.92226637  0.12955544     0.11700
H1124       H  0.57858141  0.04061646  0.11432105     0.11700
H1125       H  0.64340443  0.06811505  0.09404704     0.11700
H1126       H  0.70483002  0.94988674  0.10903282     0.11700
C1127       C  0.68042670  0.26467733  0.39798143    -0.14500
C1128       C  0.70026608  0.22553365  0.39922484     0.07700
C1129       C  0.74417891  0.22344614  0.40116440    -0.14500
C1130       C  0.76808122  0.25990788  0.40022628    -0.14500
C1131       C  0.74838170  0.29891035  0.39695374     0.07700
C1132       C  0.70433103  0.30112375  0.39665231    -0.14500
H1133       H  0.64657278  0.26699800  0.39641365     0.11700
H1134       H  0.76008286  0.19351707  0.40238515     0.11700
H1135       H  0.80199138  0.25732166  0.40068028     0.11700
H1136       H  0.68834215  0.33088141  0.39450289     0.11700
C1137       C  0.77120460  0.96581076  0.39383354    -0.14500
C1138       C  0.76899396  0.00725247  0.40379367     0.07700
C1139       C  0.80536348  0.03220592  0.40282702    -0.14500
C1140       C  0.84285897  0.01644637  0.39173796    -0.14500
C1141       C  0.84494395  0.97538529  0.38099108     0.07700
C1142       C  0.80873159  0.95008675  0.38247598    -0.14500
H1143       H  0.74348636  0.94612864  0.39368676     0.11700
H1144       H  0.80450241  0.06446027  0.40998400     0.11700
H1145       H  0.87019185  0.03664888  0.39140993     0.11700
H1146       H  0.80938182  0.91803671  0.37493520     0.11700
C1147       C  0.74005778  0.15141155  0.27951502    -0.14500
C1148       C  0.69631426  0.14730395  0.27696895     0.07700
C1149       C  0.67792194  0.14897235  0.25013500    -0.14500
C1150       C  0.70316120  0.14731378  0.22623479    -0.14500
C1151       C  0.74695766  0.14404659  0.22901005     0.07700
C1152       C  0.76529928  0.14972108  0.25562241    -0.14500
H1153       H  0.75505294  0.15149673  0.29998294     0.11700
H1154       H  0.64419159  0.14696297  0.24750717     0.11700
H1155       H  0.68812804  0.14433098  0.20586900     0.11700
H1156       H  0.79905398  0.14867947  0.25832310     0.11700
C1157       C  0.46991079  0.04877347  0.23099830    -0.14500
C1158       C  0.44307377  0.01434517  0.22785845     0.07700
C1159       C  0.42725196  0.99514663  0.25257975    -0.14500
C1160       C  0.43984252  0.00820558  0.27953426    -0.14500
C1161       C  0.46737063  0.04203098  0.28271815     0.07700
C1162       C  0.48114950  0.06296826  0.25804822    -0.14500
H1163       H  0.48256624  0.06437308  0.21262664     0.11700
H1164       H  0.40645031  0.96842303  0.25116440     0.11700
H1165       H  0.42862577  0.99132845  0.29781175     0.11700
H1166       H  0.50226257  0.08947325  0.25951495     0.11700
C1167       C  0.74522778  0.29934256  0.11187479    -0.14500
C1168       C  0.70116070  0.29824109  0.11110731     0.07700
C1169       C  0.68054984  0.25953723  0.10822280    -0.14500
C1170       C  0.70357110  0.22242759  0.10785138    -0.14500
C1171       C  0.74753690  0.22354794  0.10996663     0.07700
C1172       C  0.76823141  0.26231598  0.11109874    -0.14500
H1173       H  0.76194432  0.32877697  0.11378121     0.11700
H1174       H  0.64659367  0.25778297  0.10749594     0.11700
H1175       H  0.68693823  0.19284625  0.10674912     0.11700
H1176       H  0.80211227  0.26399547  0.11280624     0.11700
C1177       C  0.77640310  0.55447538  0.11066181    -0.14500
C1178       C  0.77315907  0.51188552  0.10338957     0.07700
C1179       C  0.80800694  0.48567979  0.10776048    -0.14500
C1180       C  0.84472185  0.50126935  0.11988632    -0.14500
C1181       C  0.84763035  0.54352278  0.12803264     0.07700
C1182       C  0.81322957  0.57011839  0.12297336    -0.14500
H1183       H  0.74977973  0.57521916  0.10816058     0.11700
H1184       H  0.80631568  0.45258562  0.10275356     0.11700
H1185       H  0.87083232  0.48006223  0.12301340     0.11700
H1186       H  0.81485912  0.60308991  0.12832627     0.11700
C1187       C  0.67919602  0.37041063  0.25630029    -0.14500
C1188       C  0.69695385  0.37326356  0.22930864     0.07700
C1189       C  0.74068630  0.36869294  0.22624862    -0.14500
C1190       C  0.76653794  0.36927511  0.24988207    -0.14500
C1191       C  0.74887757  0.37410803  0.27679012     0.07700
C1192       C  0.70505817  0.37068948  0.27994814    -0.14500
H1193       H  0.64554871  0.37261364  0.25933810     0.11700
H1194       H  0.75533806  0.36941411  0.20564623     0.11700
H1195       H  0.80022894  0.37052999  0.24680389     0.11700
H1196       H  0.69046676  0.37294640  0.30052437     0.11700
C1197       C  0.47300923  0.64466590  0.10795119    -0.14500
C1198       C  0.51288785  0.64311161  0.12068208     0.07700
C1199       C  0.53801670  0.67942393  0.12026666    -0.14500
C1200       C  0.52291921  0.71670861  0.10844076    -0.14500
C1201       C  0.48229262  0.71852799  0.09697218     0.07700
C1202       C  0.45790560  0.68185906  0.09636140    -0.14500
H1203       H  0.45300779  0.61722631  0.10729052     0.11700
H1204       H  0.56924327  0.67915791  0.12926264     0.11700
H1205       H  0.54208196  0.74469201  0.10975440     0.11700
H1206       H  0.42628975  0.68242594  0.08796305     0.11700
C1207       C  0.18577643  0.73865432  0.39544047    -0.14500
C1208       C  0.18779984  0.78253762  0.39371722     0.07700
C1209       C  0.22702096  0.80233155  0.39180745    -0.14500
C1210       C  0.26353556  0.77851901  0.39025885    -0.14500
C1211       C  0.26139924  0.73457620  0.39097010     0.07700
C1212       C  0.22231925  0.71486478  0.39421620    -0.14500
H1213       H  0.15586199  0.72263490  0.39701026     0.11700
H1214       H  0.22939593  0.83609755  0.39025349     0.11700
H1215       H  0.29336139  0.79450523  0.38798142     0.11700
H1216       H  0.21981282  0.68103359  0.39479539     0.11700
C1217       C  0.60865022  0.50232150  0.39302087    -0.14500
C1218       C  0.60565135  0.54352091  0.38286008     0.07700
C1219       C  0.64119584  0.56968870  0.38480829    -0.14500
C1220       C  0.67904354  0.55461965  0.39604316    -0.14500
C1221       C  0.68217694  0.51300557  0.40538191     0.07700
C1222       C  0.64636001  0.48729105  0.40403797    -0.14500
H1223       H  0.58187736  0.48140361  0.39222585     0.11700
H1224       H  0.63975371  0.60185584  0.37770996     0.11700
H1225       H  0.70635409  0.57486108  0.39614130     0.11700
H1226       H  0.64793627  0.45488136  0.41064586     0.11700
C1227       C  0.51650460  0.80975496  0.39403429    -0.14500
C1228       C  0.47334137  0.80608507  0.39969902     0.07700
C1229       C  0.44750555  0.84132434  0.39586424    -0.14500
C1230       C  0.46420303  0.87906727  0.38609175    -0.14500
C1231       C  0.50713792  0.88247962  0.37956741     0.07700
C1232       C  0.53319666  0.84748383  0.38390684    -0.14500
H1233       H  0.53701923  0.78290351  0.39614654     0.11700
H1234       H  0.41400327  0.83932482  0.39964547     0.11700
H1235       H  0.44333438  0.90552204  0.38336439     0.11700
H1236       H  0.56657509  0.84933239  0.37967393     0.11700
C1237       C  0.33082080  0.76632137  0.27481044    -0.14500
C1238       C  0.33712643  0.72296824  0.27129259     0.07700
C1239       C  0.33688607  0.70593745  0.24402175    -0.14500
C1240       C  0.33804242  0.73248175  0.22079171    -0.14500
C1241       C  0.33970386  0.77619523  0.22472353     0.07700
C1242       C  0.33239582  0.79280828  0.25165677    -0.14500
H1243       H  0.32941379  0.78038673  0.29559720     0.11700
H1244       H  0.34056322  0.67256519  0.24062778     0.11700
H1245       H  0.34230102  0.71868033  0.20010708     0.11700
H1246       H  0.33218657  0.82633494  0.25525918     0.11700
C1247       C  0.42578780  0.47792071  0.26426662    -0.14500
C1248       C  0.45308192  0.50111574  0.28177356     0.07700
C1249       C  0.48923946  0.51862500  0.26962318    -0.14500
C1250       C  0.49759747  0.51372843  0.24076174    -0.14500
C1251       C  0.47082672  0.49006305  0.22335469     0.07700
C1252       C  0.43524698  0.47136252  0.23557243    -0.14500
H1253       H  0.39704494  0.46498314  0.27283279     0.11700
H1254       H  0.51022425  0.53756775  0.28225193     0.11700
H1255       H  0.52602156  0.52722770  0.23219935     0.11700
H1256       H  0.41491991  0.45159984  0.22295913     0.11700
C1257       C  0.93471704  0.50594878  0.50422014    -0.14500
C1258       C  0.95577733  0.50310473  0.47811686     0.07700
C1259       C  0.99986940  0.50173001  0.47813217    -0.14500
C1260       C  0.02223744  0.50347132  0.50350848    -0.14500
C1261       C  0.00114620  0.50664690  0.52960149     0.07700
C1262       C  0.95706216  0.50771275  0.52956850    -0.14500
H1263       H  0.90075237  0.50688983  0.50516885     0.11700
H1264       H  0.01718114  0.49935414  0.45853561     0.11700
H1265       H  0.05621502  0.50289068  0.50258147     0.11700
H1266       H  0.93971406  0.51043948  0.54912959     0.11700
C1267       C  0.97907132  0.53776426  0.97732220    -0.14500
C1268       C  0.98545580  0.49437323  0.97537964     0.07700
C1269       C  0.99194226  0.47171283  0.00052466    -0.14500
C1270       C  0.99146185  0.49172340  0.02682550    -0.14500
C1271       C  0.98462237  0.53502642  0.02878501     0.07700
C1272       C  0.97871247  0.55779602  0.00362740    -0.14500
H1273       H  0.97352106  0.55619117  0.95858375     0.11700
H1274       H  0.99673894  0.43813912  0.00002691     0.11700
H1275       H  0.99656297  0.47323617  0.04559371     0.11700
H1276       H  0.97355360  0.59131530  0.00417941     0.11700
C1277       C  0.92428287  0.50764995  0.75563624    -0.14500
C1278       C  0.94225841  0.52673545  0.77982646     0.07700
C1279       C  0.97157666  0.55880652  0.77553029    -0.14500
C1280       C  0.98298542  0.57087430  0.74807308    -0.14500
C1281       C  0.96677162  0.55030447  0.72388506     0.07700
C1282       C  0.93687944  0.51867376  0.72815401    -0.14500
H1283       H  0.90162318  0.48266127  0.75788768     0.11700
H1284       H  0.98618109  0.57422762  0.79335980     0.11700
H1285       H  0.00616822  0.59540834  0.74591415     0.11700
H1286       H  0.92377627  0.50197104  0.71031496     0.11700
C1287       C  0.47280931  0.54187554  0.53107224    -0.14500
C1288       C  0.46621924  0.49846915  0.53272990     0.07700
C1289       C  0.45830694  0.47600416  0.50763833    -0.14500
C1290       C  0.45818926  0.49611641  0.48155847    -0.14500
C1291       C  0.46573714  0.53931506  0.47980219     0.07700
C1292       C  0.47248368  0.56206419  0.50493753    -0.14500
H1293       H  0.47928434  0.56011149  0.54985756     0.11700
H1294       H  0.45309014  0.44248216  0.50797543     0.11700
H1295       H  0.45225714  0.47771978  0.46276339     0.11700
H1296       H  0.47804565  0.59552695  0.50444363     0.11700
C1297       C  0.31373336  0.46236435  0.61055405    -0.14500
C1298       C  0.34903639  0.48772684  0.61594360     0.07700
C1299       C  0.34753821  0.53007423  0.60775086    -0.14500
C1300       C  0.31072505  0.54728581  0.59659716    -0.14500
C1301       C  0.27464217  0.52251053  0.59280672     0.07700
C1302       C  0.27705627  0.47952331  0.59899600    -0.14500
H1303       H  0.31401745  0.42942373  0.61591953     0.11700
H1304       H  0.37432324  0.55046499  0.61094499     0.11700
H1305       H  0.30968445  0.58060491  0.59240921     0.11700
H1306       H  0.24955339  0.45976220  0.59692715     0.11700
C1307       C  0.50002216  0.50228976  0.97474828    -0.14500
C1308       C  0.45604047  0.50539514  0.97479429     0.07700
C1309       C  0.43489971  0.50691822  0.00090230    -0.14500
C1310       C  0.45716671  0.50655513  0.02624494    -0.14500
C1311       C  0.50119548  0.50452433  0.02621865     0.07700
C1312       C  0.52231907  0.50180488  0.00014065    -0.14500
H1313       H  0.51731049  0.50103273  0.95509679     0.11700
H1314       H  0.40102061  0.50954406  0.00185646     0.11700
H1315       H  0.43982217  0.50829691  0.04585846     0.11700
H1316       H  0.55622962  0.49957620  0.99927340     0.11700
C1317       C  0.20951063  0.65703952  0.78050474    -0.14500
C1318       C  0.25317513  0.65337441  0.77674603     0.07700
C1319       C  0.27048570  0.66049332  0.75001360    -0.14500
C1320       C  0.24419744  0.66202024  0.72665554    -0.14500
C1321       C  0.20075012  0.65587488  0.73009415     0.07700
C1322       C  0.18329544  0.65814204  0.75717732    -0.14500
H1323       H  0.19528163  0.65379613  0.80112837     0.11700
H1324       H  0.30413074  0.65965616  0.74666736     0.11700
H1325       H  0.25837232  0.66237915  0.70589839     0.11700
H1326       H  0.14972976  0.65537945  0.76044969     0.11700
C1327       C  0.14680201  0.54506632  0.90537583    -0.14500
C1328       C  0.18151632  0.51946135  0.91170514     0.07700
C1329       C  0.17727556  0.47590485  0.90814144    -0.14500
C1330       C  0.14027184  0.45870932  0.89687442    -0.14500
C1331       C  0.10640948  0.48458940  0.88914077     0.07700
C1332       C  0.10976827  0.52789190  0.89437064    -0.14500
H1333       H  0.14908810  0.57879214  0.90751999     0.11700
H1334       H  0.20360724  0.45533865  0.91217604     0.11700
H1335       H  0.13850174  0.42513740  0.89374836     0.11700
H1336       H  0.08417786  0.54880565  0.88917805     0.11700
C1337       C  0.47269265  0.57427476  0.75820837    -0.14500
C1338       C  0.49103263  0.55553334  0.78222228     0.07700
C1339       C  0.52380659  0.52699203  0.77780019    -0.14500
C1340       C  0.53667815  0.51651073  0.75026525    -0.14500
C1341       C  0.51623543  0.53302181  0.72622621     0.07700
C1342       C  0.48458119  0.56277824  0.73070477    -0.14500
H1343       H  0.44719279  0.59627995  0.76054615     0.11700
H1344       H  0.53877067  0.51195308  0.79555802     0.11700
H1345       H  0.56126388  0.49348458  0.74792533     0.11700
H1346       H  0.46795291  0.57614583  0.71300648     0.11700
C1347       C  0.76594770  0.29234106  0.61851889    -0.14500
C1348       C  0.76517416  0.24832319  0.61884714     0.07700
C1349       C  0.72606946  0.22775493  0.61890185    -0.14500
C1350       C  0.68864245  0.25057915  0.61927062    -0.14500
C1351       C  0.68936563  0.29455476  0.61920986     0.07700
C1352       C  0.72845562  0.31519619  0.61847027    -0.14500
H1353       H  0.79551767  0.30913767  0.61846736     0.11700
H1354       H  0.72432582  0.19388301  0.61935440     0.11700
H1355       H  0.65911647  0.23373321  0.61984102     0.11700
H1356       H  0.73014151  0.34908848  0.61862219     0.11700
C1357       C  0.98311419  0.99441852  0.52798417    -0.14500
C1358       C  0.98272164  0.03839960  0.52757258     0.07700
C1359       C  0.98362951  0.05872247  0.50122580    -0.14500
C1360       C  0.98417460  0.03565330  0.47602677    -0.14500
C1361       C  0.98376014  0.99165140  0.47648427     0.07700
C1362       C  0.98363928  0.97140713  0.50284555    -0.14500
H1363       H  0.98238058  0.97763160  0.54776304     0.11700
H1364       H  0.98313090  0.09258345  0.49998612     0.11700
H1365       H  0.98462526  0.05232573  0.45620135     0.11700
H1366       H  0.98382308  0.93754913  0.50416564     0.11700
C1367       C  0.02389455  0.31478601  0.59994835    -0.14500
C1368       C  0.98064173  0.31175700  0.59415984     0.07700
C1369       C  0.95556609  0.34749881  0.59828802    -0.14500
C1370       C  0.97266402  0.38462093  0.60906787    -0.14500
C1371       C  0.01544536  0.38722513  0.61629317     0.07700
C1372       C  0.04107740  0.35204580  0.61097919    -0.14500
H1373       H  0.04393105  0.28756391  0.59769444     0.11700
H1374       H  0.92206602  0.34612199  0.59444618     0.11700
H1375       H  0.95192281  0.41104790  0.61240413     0.11700
H1376       H  0.07430036  0.35304616  0.61578259     0.11700
C1377       C  0.83581065  0.28420865  0.72488316    -0.14500
C1378       C  0.84013529  0.24074276  0.72839584     0.07700
C1379       C  0.83521711  0.22334544  0.75526685    -0.14500
C1380       C  0.83558245  0.24946573  0.77870712    -0.14500
C1381       C  0.84106612  0.29282309  0.77515865     0.07700
C1382       C  0.83657017  0.31030476  0.74830088    -0.14500
H1383       H  0.83748401  0.29837887  0.70420763     0.11700
H1384       H  0.83666848  0.18979503  0.75847438     0.11700
H1385       H  0.83698401  0.23527337  0.79937893     0.11700
H1386       H  0.83884586  0.34380579  0.74507380     0.11700
C1387       C  0.24643395  0.80407579  0.88988924    -0.14500
C1388       C  0.20245147  0.80338938  0.88734294     0.07700
C1389       C  0.18185816  0.76444779  0.88604899    -0.14500
C1390       C  0.20480891  0.72710244  0.88624369    -0.14500
C1391       C  0.24887291  0.72780430  0.88814021     0.07700
C1392       C  0.26934378  0.76672163  0.89050109    -0.14500
H1393       H  0.26324732  0.83353936  0.89102442     0.11700
H1394       H  0.14802935  0.76282254  0.88396772     0.11700
H1395       H  0.18803887  0.69768258  0.88445750     0.11700
H1396       H  0.30325424  0.76843127  0.89185194     0.11700
C1397       C  0.95359010  0.01216666  0.97538344    -0.14500
C1398       C  0.99646500  0.02238680  0.97453998     0.07700
C1399       C  0.01698443  0.03162434  0.00018077    -0.14500
C1400       C  0.99538680  0.03012803  0.02592066    -0.14500
C1401       C  0.95262625  0.01946472  0.02675003     0.07700
C1402       C  0.93201067  0.01070304  0.00109294    -0.14500
H1403       H  0.93685720  0.00427413  0.95623753     0.11700
H1404       H  0.05008357  0.03942697  0.00046501     0.11700
H1405       H  0.01214254  0.03761572  0.04513173     0.11700
H1406       H  0.89900599  0.00248898  0.00080984     0.11700
C1407       C  0.93296353  0.01223115  0.77377718    -0.14500
C1408       C  0.96774272  0.98601605  0.77788077     0.07700
C1409       C  0.98750003  0.96932884  0.75350443    -0.14500
C1410       C  0.97428877  0.97969404  0.72612242    -0.14500
C1411       C  0.93997457  0.00637804  0.72194286     0.07700
C1412       C  0.91889571  0.02161111  0.74629063    -0.14500
H1413       H  0.91684907  0.02575796  0.79172983     0.11700
H1414       H  0.01461539  0.94925550  0.75549207     0.11700
H1415       H  0.99170360  0.96763132  0.70823694     0.11700
H1416       H  0.89241624  0.04250958  0.74419887     0.11700
C1417       C  0.97066888  0.15048593  0.89477488    -0.14500
C1418       C  0.01347678  0.14885109  0.88733559     0.07700
C1419       C  0.03831190  0.18469630  0.89209000    -0.14500
C1420       C  0.02044781  0.22150277  0.90314549    -0.14500
C1421       C  0.97727416  0.22346319  0.90945426     0.07700
C1422       C  0.95280796  0.18729067  0.90546629    -0.14500
H1423       H  0.95054086  0.12348823  0.89176272     0.11700
H1424       H  0.07148087  0.18446976  0.88701815     0.11700
H1425       H  0.03993036  0.24918447  0.90514310     0.11700
H1426       H  0.91932796  0.18799705  0.90953226     0.11700
C1427       C  0.24912550  0.73125422  0.61352391    -0.14500
C1428       C  0.20511097  0.73209697  0.61588654     0.07700
C1429       C  0.18467304  0.77102779  0.61740503    -0.14500
C1430       C  0.20780045  0.80824150  0.61763028    -0.14500
C1431       C  0.25191034  0.80743683  0.61598994     0.07700
C1432       C  0.27225841  0.76852721  0.61336149    -0.14500
H1433       H  0.26576061  0.70172274  0.61224853     0.11700
H1434       H  0.15082930  0.77272292  0.61943404     0.11700
H1435       H  0.19109024  0.83764235  0.61964409     0.11700
H1436       H  0.30618099  0.76674534  0.61217765     0.11700
C1437       C  0.43519804  0.03986876  0.50730519    -0.14500
C1438       C  0.45555133  0.02874511  0.53254892     0.07700
C1439       C  0.49731614  0.01485398  0.53122195    -0.14500
C1440       C  0.51799515  0.01150335  0.50532834    -0.14500
C1441       C  0.49751246  0.02207045  0.48005311     0.07700
C1442       C  0.45591255  0.03652429  0.48137236    -0.14500
H1443       H  0.40287407  0.05041322  0.50750028     0.11700
H1444       H  0.51368848  0.00526830  0.55010892     0.11700
H1445       H  0.55014414  0.00045007  0.50514411     0.11700
H1446       H  0.43945060  0.04561488  0.46240640     0.11700
C1447       C  0.17732792  0.05882177  0.59912952    -0.14500
C1448       C  0.18105359  0.01555936  0.59409394     0.07700
C1449       C  0.14553238  0.99003338  0.59825891    -0.14500
C1450       C  0.10783072  0.00698878  0.60834908    -0.14500
C1451       C  0.10477821  0.04986268  0.61494584     0.07700
C1452       C  0.13973470  0.07573114  0.60959602    -0.14500
H1453       H  0.20433287  0.07919617  0.59683824     0.11700
H1454       H  0.14755151  0.95648408  0.59502308     0.11700
H1455       H  0.08146569  0.98619129  0.61185527     0.11700
H1456       H  0.13832493  0.10902025  0.61397665     0.11700
C1457       C  0.21043962  0.87446231  0.72502628    -0.14500
C1458       C  0.25401880  0.87873953  0.72856957     0.07700
C1459       C  0.27155279  0.87363875  0.75540489    -0.14500
C1460       C  0.24552391  0.87473515  0.77885597    -0.14500
C1461       C  0.20218301  0.88083201  0.77527555     0.07700
C1462       C  0.18442432  0.87585268  0.74845986    -0.14500
H1463       H  0.19615884  0.87614269  0.70435506     0.11700
H1464       H  0.30521566  0.87481539  0.75859724     0.11700
H1465       H  0.25985392  0.87633391  0.79951390     0.11700
H1466       H  0.15084634  0.87836094  0.74525323     0.11700
C1467       C  0.48331758  0.15292046  0.61008083    -0.14500
C1468       C  0.44043247  0.15032929  0.61714159     0.07700
C1469       C  0.41462819  0.18502724  0.61114855    -0.14500
C1470       C  0.43181728  0.22216866  0.60015834    -0.14500
C1471       C  0.47523892  0.22559502  0.59506918     0.07700
C1472       C  0.50043745  0.18999141  0.59933385    -0.14500
H1473       H  0.50415134  0.12670925  0.61375414     0.11700
H1474       H  0.38130490  0.18394696  0.61568310     0.11700
H1475       H  0.41161622  0.24917683  0.59766051     0.11700
H1476       H  0.53404101  0.19160635  0.59589915     0.11700
C1477       C  0.72772889  0.22257263  0.88725606    -0.14500
C1478       C  0.68883306  0.24323683  0.88947053     0.07700
C1479       C  0.68842819  0.28704942  0.89217542    -0.14500
C1480       C  0.72602081  0.30977971  0.89195326    -0.14500
C1481       C  0.76485276  0.28926675  0.88858342     0.07700
C1482       C  0.76526338  0.24532649  0.88659275    -0.14500
H1483       H  0.72912840  0.18881723  0.88504407     0.11700
H1484       H  0.65899784  0.30382524  0.89406403     0.11700
H1485       H  0.72450964  0.34359414  0.89354137     0.11700
H1486       H  0.79456935  0.22849791  0.88411532     0.11700
C1487       C  0.46179057  0.03671631  0.02953087    -0.14500
C1488       C  0.46886656  0.99328853  0.02970763     0.07700
C1489       C  0.47463519  0.97265262  0.00362512    -0.14500
C1490       C  0.47393755  0.99476346  0.97822856    -0.14500
C1491       C  0.46758385  0.03828787  0.97803412     0.07700
C1492       C  0.46119693  0.05891187  0.00405430    -0.14500
H1493       H  0.45672689  0.05361088  0.04906503     0.11700
H1494       H  0.47979447  0.93914691  0.00270173     0.11700
H1495       H  0.47932517  0.97776032  0.95876990     0.11700
H1496       H  0.45638993  0.09246996  0.00483617     0.11700
C1497       C  0.30758992  0.98938810  0.90952932    -0.14500
C1498       C  0.27152667  0.01415824  0.91330210     0.07700
C1499       C  0.27411873  0.05723980  0.90737898    -0.14500
C1500       C  0.31112561  0.07456240  0.89630747    -0.14500
C1501       C  0.34655950  0.04928140  0.89119991     0.07700
C1502       C  0.34465679  0.00673114  0.89880905    -0.14500
H1503       H  0.30641895  0.95600416  0.91347647     0.11700
H1504       H  0.24663255  0.07700596  0.90939486     0.11700
H1505       H  0.31169180  0.10762373  0.89127909     0.11700
H1506       H  0.37147261  0.98637783  0.89569634     0.11700
C1507       C  0.61086302  0.22348379  0.74960752    -0.14500
C1508       C  0.60836769  0.24056635  0.77679100     0.07700
C1509       C  0.61468611  0.28379748  0.78069785    -0.14500
C1510       C  0.61488563  0.31031810  0.75759215    -0.14500
C1511       C  0.60905774  0.29357926  0.73057346     0.07700
C1512       C  0.61152228  0.24997099  0.72650976    -0.14500
H1513       H  0.60757514  0.19010624  0.74601346     0.11700
H1514       H  0.61458470  0.29768602  0.80155128     0.11700
H1515       H  0.61463418  0.34384035  0.76121671     0.11700
H1516       H  0.60880328  0.23613721  0.70571301     0.11700
C1517       C  0.50273227  0.34703672  0.90780278    -0.14500
C1518       C  0.47722468  0.31180466  0.91278410     0.07700
C1519       C  0.43388422  0.31518138  0.90750109    -0.14500
C1520       C  0.41693410  0.35210849  0.89613232    -0.14500
C1521       C  0.44284594  0.38673263  0.89000071     0.07700
C1522       C  0.48578387  0.38399309  0.89678141    -0.14500
H1523       H  0.53632922  0.34533278  0.91117212     0.11700
H1524       H  0.41349420  0.28835310  0.91038592     0.11700
H1525       H  0.38361276  0.35325708  0.89168018     0.11700
H1526       H  0.50671513  0.41005280  0.89276052     0.11700
C1527       C  0.53361768  0.02192665  0.75960223    -0.14500
C1528       C  0.51179837  0.00616325  0.78341154     0.07700
C1529       C  0.47846049  0.97847759  0.77845497    -0.14500
C1530       C  0.46687480  0.96764218  0.75077886    -0.14500
C1531       C  0.48719123  0.98508632  0.72695992     0.07700
C1532       C  0.52107355  0.01219609  0.73184237    -0.14500
H1533       H  0.55945373  0.04348185  0.76232949     0.11700
H1534       H  0.46067365  0.96588510  0.79594781     0.11700
H1535       H  0.44045113  0.94681993  0.74811710     0.11700
H1536       H  0.53747318  0.02634263  0.71427998     0.11700
loop_ 
_geom_bond_atom_site_label_1 
_geom_bond_atom_site_label_2 
_geom_bond_distance 
_geom_bond_site_symmetry_2 
_ccdc_geom_bond_type 
Zr1           O2   2.436   1_545  S
Zr1           O3   2.424       .  S
Zr1           O4   2.469       .  S
Zr1           O7   2.514       .  S
Zr1           O9   2.390       .  S
Zr1          O10   2.403       .  S
Zr1          O11   2.424       .  S
Zr1          O12   2.410       .  S
O2           H58   0.990       .  S
O2           H66   0.991       .  S
O3           C23   1.284       .  A
O4           C25   1.295       .  A
O5          Zr15   2.397       .  S
O5           C24   1.270       .  A
O6          Zr14   2.441       .  S
O6           C25   1.289       .  A
O7           C24   1.297       .  A
O8          Zr16   2.463       .  S
O8           C23   1.290       .  A
O9          Zr14   2.390       .  S
O9          Zr16   2.359       .  S
O10         Zr15   2.402       .  S
O10         Zr16   2.353       .  S
O10          H45   0.964       .  S
O11         Zr14   2.421       .  S
O11         Zr31   2.372       .  S
O11          H48   0.964       .  S
O12         Zr15   2.403       .  S
O12         Zr31   2.403       .  S
Zr13         O38   2.442       .  S
Zr13         O32   2.441       .  S
Zr13         O40   2.389       .  S
Zr13         O28   2.415       .  S
Zr13         O19   2.414       .  S
Zr13         O20   2.406       .  S
Zr13         O21   2.367       .  S
Zr13         O22   2.370       .  S
Zr14         O33   2.435       .  S
Zr14         O26   2.436       .  S
Zr14         O27   2.478       .  S
Zr14         O20   2.409       .  S
Zr14         O21   2.387       .  S
Zr15         O17   2.438       .  S
Zr15         O39   2.437       .  S
Zr15         O41   2.422       .  S
Zr15         O19   2.386       .  S
Zr15         O22   2.377       .  S
Zr16         O42   2.439       .  S
Zr16         O43   2.436       .  S
Zr16         O18   2.438       .  S
Zr16         O19   2.424       .  S
Zr16         O20   2.376       .  S
O17          H54   0.990       .  S
O18          H49   0.990       .  S
O18          H63   0.990       .  S
O20          H46   0.963       .  S
O21         Zr31   2.383       .  S
O22         Zr31   2.360       .  S
O22          H47   0.965       .  S
C23        C1501   1.490       .  S
C24        C1528   1.507       .  S
C25        C1491   1.493       .  S
O26          H62   0.990       .  S
O27          C29   1.291       .  A
O28          C29   1.276       .  A
C29        C1518   1.488       .  S
O30         Zr31   2.438       .  S
O30          H59   0.990       .  S
Zr31         O34   2.438       .  S
Zr31         O35   2.438       .  S
Zr31         O36   2.420       .  S
O32          C37   1.286       .  A
O33          H50   0.990       .  S
O33          H65   0.990       .  S
O34          H51   0.990       .  S
O35          H55   0.990       .  S
O35          H64   0.990       .  S
O36          C37   1.282       .  A
C37        C1478   1.482       .  S
O38          H57   0.990       .  S
O38          H61   0.989       .  S
O39          H53   0.989       .  S
O39          H60   0.990       .  S
O40          C44   1.277       .  A
O41          C44   1.283       .  A
O42          H52   0.990       .  S
O43          H56   0.990       .  S
C44        C1508   1.464       .  S
Zr67         O68   2.435   1_545  S
Zr67         O69   2.432       .  S
Zr67         O70   2.464       .  S
Zr67         O73   2.519       .  S
Zr67         O75   2.393       .  S
Zr67         O76   2.398       .  S
Zr67         O77   2.429   1_545  S
Zr67         O78   2.409   1_545  S
O68         H124   0.990   1_565  S
O68         H132   0.990       .  S
O69          C89   1.285       .  A
O70          C91   1.295       .  A
O71         Zr81   2.399       .  S
O71          C90   1.271       .  A
O72         Zr80   2.424       .  S
O72          C91   1.286       .  A
O73          C90   1.297   1_545  A
O74         Zr82   2.469       .  S
O74          C89   1.291       .  A
O75         Zr80   2.393       .  S
O75         Zr82   2.355       .  S
O76         Zr81   2.401   1_545  S
O76         Zr82   2.357       .  S
O76         H111   0.965       .  S
O77         Zr80   2.422   1_565  S
O77         Zr97   2.368       .  S
O77         H114   0.964       .  S
O78         Zr81   2.398       .  S
O78         Zr97   2.405       .  S
Zr79        O104   2.440       .  S
Zr79         O98   2.423       .  S
Zr79        O106   2.383       .  S
Zr79         O94   2.409       .  S
Zr79         O85   2.407       .  S
Zr79         O86   2.399   1_565  S
Zr79         O87   2.370       .  S
Zr79         O88   2.372       .  S
Zr80         O99   2.434   1_545  S
Zr80         O92   2.435       .  S
Zr80         O93   2.478       .  S
Zr80         O86   2.400       .  S
Zr80         O87   2.381   1_545  S
Zr81         O83   2.439       .  S
Zr81        O105   2.439       .  S
Zr81        O107   2.418       .  S
Zr81         O85   2.385       .  S
Zr81         O88   2.375       .  S
Zr82        O108   2.439       .  S
Zr82        O109   2.435       .  S
Zr82         O84   2.438       .  S
Zr82         O85   2.425   1_545  S
Zr82         O86   2.375       .  S
O83         H120   0.990       .  S
O84         H115   0.990       .  S
O84         H129   0.990       .  S
O86         H112   0.963       .  S
O87         Zr97   2.386       .  S
O88         Zr97   2.354       .  S
O88         H113   0.964       .  S
C89        C1468   1.496       .  S
C90        C1531   1.506       .  S
C91        C1438   1.483       .  S
O92         H128   0.990       .  S
O93          C95   1.291   1_545  A
O94          C95   1.276       .  A
C95        C1448   1.484   1_565  S
O96         Zr97   2.438       .  S
O96         H125   0.990       .  S
Zr97        O100   2.436       .  S
Zr97        O101   2.439       .  S
Zr97        O102   2.433       .  S
O98         C103   1.283       .  A
O99         H116   0.990       .  S
O99         H131   0.990       .  S
O100        H117   0.990       .  S
O101        H121   0.990       .  S
O101        H130   0.990       .  S
O102        C103   1.285       .  A
C103       C1431   1.483       .  S
O104        H123   0.990       .  S
O104        H127   0.990       .  S
O105        H119   0.990   1_565  S
O105        H126   0.990       .  S
O106        C110   1.277       .  A
O107        C110   1.282       .  A
O108        H118   0.990       .  S
O109        H122   0.990       .  S
C110       C1458   1.461       .  S
Zr133       O134   2.437   1_445  S
Zr133       O135   2.428       .  S
Zr133       O136   2.476       .  S
Zr133       O139   2.534   1_455  S
Zr133       O141   2.396       .  S
Zr133       O142   2.396       .  S
Zr133       O143   2.433   1_545  S
Zr133       O144   2.411   1_545  S
O134        H190   0.991   1_565  S
O134        H198   0.990       .  S
O135        C155   1.285       .  A
O136        C157   1.296       .  A
O137       Zr147   2.396       .  S
O137        C156   1.272   1_455  A
O138       Zr146   2.433   1_545  S
O138        C157   1.287       .  A
O139        C156   1.300   1_545  A
O140       Zr148   2.462       .  S
O140        C155   1.290       .  A
O141       Zr146   2.397   1_545  S
O141       Zr148   2.365       .  S
O142       Zr147   2.398   1_545  S
O142       Zr148   2.353       .  S
O142        H177   0.965       .  S
O143       Zr146   2.421       .  S
O143       Zr163   2.375       .  S
O143        H180   0.965       .  S
O144       Zr147   2.399       .  S
O144       Zr163   2.402       .  S
Zr145       O170   2.442       .  S
Zr145       O164   2.430       .  S
Zr145       O172   2.394       .  S
Zr145       O160   2.417       .  S
Zr145       O151   2.410       .  S
Zr145       O152   2.401   1_565  S
Zr145       O153   2.375       .  S
Zr145       O154   2.373       .  S
Zr146       O165   2.435       .  S
Zr146       O158   2.434   1_565  S
Zr146       O159   2.474   1_565  S
Zr146       O152   2.403   1_565  S
Zr146       O153   2.385       .  S
Zr147       O149   2.438       .  S
Zr147       O171   2.436       .  S
Zr147       O173   2.417       .  S
Zr147       O151   2.384       .  S
Zr147       O154   2.378       .  S
Zr148       O174   2.437       .  S
Zr148       O175   2.435       .  S
Zr148       O150   2.437       .  S
Zr148       O151   2.421   1_545  S
Zr148       O152   2.368       .  S
O149        H186   0.990       .  S
O150        H181   0.990       .  S
O150        H195   0.990       .  S
O152        H178   0.963       .  S
O153       Zr163   2.389       .  S
O154       Zr163   2.352       .  S
O154        H179   0.965       .  S
C155       C1418   1.493       .  S
C156       C1408   1.512       .  S
C157       C1398   1.492   1_455  S
O158        H194   0.990       .  S
O159        C161   1.290   1_545  A
O160        C161   1.277       .  A
C161       C1498   1.484   1_565  S
O162       Zr163   2.438       .  S
O162        H191   0.990       .  S
Zr163       O166   2.437       .  S
Zr163       O167   2.439       .  S
Zr163       O168   2.436       .  S
O164        C169   1.285       .  A
O165        H182   0.990       .  S
O165        H197   0.990       .  S
O166        H183   0.990       .  S
O167        H187   0.990       .  S
O167        H196   0.990       .  S
O168        C169   1.285       .  A
C169       C1388   1.484       .  S
O170        H189   0.990       .  S
O170        H193   0.990       .  S
O171        H185   0.990   1_565  S
O171        H192   0.990       .  S
O172        C176   1.279       .  A
O173        C176   1.282       .  A
O174        H184   0.990       .  S
O175        H188   0.991       .  S
C176       C1461   1.462       .  S
Zr199       O200   2.436   1_545  S
Zr199       O201   2.436   1_655  S
Zr199       O202   2.465       .  S
Zr199       O205   2.513       .  S
Zr199       O207   2.389       .  S
Zr199       O208   2.400       .  S
Zr199       O209   2.425       .  S
Zr199       O210   2.413       .  S
O200        H256   0.990       .  S
O200        H264   0.990       .  S
O201        C221   1.286       .  A
O202        C223   1.295       .  A
O203       Zr213   2.401       .  S
O203        C222   1.272       .  A
O204       Zr212   2.439       .  S
O204        C223   1.289       .  A
O205        C222   1.298       .  A
O206       Zr214   2.452       .  S
O206        C221   1.288       .  A
O207       Zr212   2.390       .  S
O207       Zr214   2.363   1_655  S
O208       Zr213   2.396       .  S
O208       Zr214   2.350   1_655  S
O208        H243   0.964       .  S
O209       Zr212   2.421       .  S
O209       Zr229   2.371       .  S
O209        H246   0.963       .  S
O210       Zr213   2.400       .  S
O210       Zr229   2.406       .  S
Zr211       O236   2.438       .  S
Zr211       O230   2.433       .  S
Zr211       O238   2.391       .  S
Zr211       O226   2.420       .  S
Zr211       O217   2.411       .  S
Zr211       O218   2.397       .  S
Zr211       O219   2.371       .  S
Zr211       O220   2.373       .  S
Zr212       O231   2.435       .  S
Zr212       O224   2.433   1_655  S
Zr212       O225   2.479       .  S
Zr212       O218   2.404       .  S
Zr212       O219   2.387       .  S
Zr213       O215   2.438       .  S
Zr213       O237   2.437       .  S
Zr213       O239   2.420       .  S
Zr213       O217   2.386       .  S
Zr213       O220   2.375       .  S
Zr214       O240   2.439       .  S
Zr214       O241   2.436       .  S
Zr214       O216   2.437       .  S
Zr214       O217   2.420   1_455  S
Zr214       O218   2.368   1_455  S
O215        H252   0.990       .  S
O216        H247   0.990       .  S
O216        H261   0.990       .  S
O218        H244   0.962       .  S
O219       Zr229   2.384       .  S
O220       Zr229   2.352       .  S
O220        H245   0.965       .  S
C221       C1451   1.490       .  S
C222       C1411   1.509       .  S
C223       C1358   1.491       .  S
O224        H260   0.990       .  S
O225        C227   1.292       .  A
O226        C227   1.278       .  A
C227       C1368   1.488       .  S
O228       Zr229   2.438       .  S
O228        H257   0.990       .  S
Zr229       O232   2.437       .  S
Zr229       O233   2.439       .  S
Zr229       O234   2.434       .  S
O230        C235   1.285       .  A
O231        H248   0.990       .  S
O231        H263   0.990       .  S
O232        H249   0.990       .  S
O233        H253   0.990       .  S
O233        H262   0.990       .  S
O234        C235   1.285       .  A
C235       C1348   1.484       .  S
O236        H255   0.990       .  S
O236        H259   0.990       .  S
O237        H251   0.990       .  S
O237        H258   0.989       .  S
O238        C242   1.279       .  A
O239        C242   1.283       .  A
O240        H250   0.990       .  S
O241        H254   0.990       .  S
C242       C1378   1.463       .  S
Zr265       O266   2.435       .  S
Zr265       O267   2.440       .  S
Zr265       O268   2.460       .  S
Zr265       O271   2.508       .  S
Zr265       O273   2.384       .  S
Zr265       O274   2.399       .  S
Zr265       O275   2.430       .  S
Zr265       O276   2.412       .  S
O266        H322   0.990       .  S
O266        H330   0.990       .  S
O267        C287   1.287       .  A
O268        C289   1.294       .  A
O269       Zr279   2.403       .  S
O269        C288   1.272       .  A
O270       Zr278   2.431       .  S
O270        C289   1.287       .  A
O271        C288   1.296       .  A
O272       Zr280   2.470       .  S
O272        C287   1.291       .  A
O273       Zr278   2.388       .  S
O273       Zr280   2.354       .  S
O274       Zr279   2.405       .  S
O274       Zr280   2.357       .  S
O274        H309   0.964       .  S
O275       Zr278   2.421       .  S
O275       Zr295   2.376       .  S
O275        H312   0.965       .  S
O276       Zr279   2.401       .  S
O276       Zr295   2.403       .  S
Zr277       O302   2.441       .  S
Zr277       O296   2.427       .  S
Zr277       O304   2.390       .  S
Zr277       O292   2.410       .  S
Zr277       O283   2.407       .  S
Zr277       O284   2.400       .  S
Zr277       O285   2.374       .  S
Zr277       O286   2.371       .  S
Zr278       O297   2.435       .  S
Zr278       O290   2.434       .  S
Zr278       O291   2.481       .  S
Zr278       O284   2.404       .  S
Zr278       O285   2.385       .  S
Zr279       O281   2.438       .  S
Zr279       O303   2.436       .  S
Zr279       O305   2.432       .  S
Zr279       O283   2.387       .  S
Zr279       O286   2.376       .  S
Zr280       O306   2.439       .  S
Zr280       O307   2.435       .  S
Zr280       O282   2.438       .  S
Zr280       O283   2.426       .  S
Zr280       O284   2.380       .  S
O281        H318   0.990       .  S
O282        H313   0.990       .  S
O282        H327   0.990       .  S
O284        H310   0.963       .  S
O285       Zr295   2.386       .  S
O286       Zr295   2.357       .  S
O286        H311   0.965       .  S
C287       C1521   1.497       .  S
C288       C1338   1.503       .  S
C289       C1308   1.486       .  S
O290        H326   0.991       .  S
O291        C293   1.292       .  A
O292        C293   1.275       .  A
C293       C1328   1.489       .  S
O294       Zr295   2.440       .  S
O294        H323   0.990       .  S
Zr295       O298   2.438       .  S
Zr295       O299   2.439       .  S
Zr295       O300   2.434       .  S
O296        C301   1.284       .  A
O297        H314   0.990       .  S
O297        H329   0.990       .  S
O298        H315   0.991       .  S
O299        H319   0.990       .  S
O299        H328   0.990       .  S
O300        C301   1.285       .  A
C301       C1391   1.484       .  S
O302        H321   0.990       .  S
O302        H325   0.990       .  S
O303        H317   0.990       .  S
O303        H324   0.990       .  S
O304        C308   1.278       .  A
O305        C308   1.284       .  A
O306        H316   0.990       .  S
O307        H320   0.990       .  S
C308       C1318   1.468       .  S
Zr331       O332   2.437       .  S
Zr331       O333   2.427       .  S
Zr331       O334   2.463       .  S
Zr331       O337   2.510       .  S
Zr331       O339   2.390       .  S
Zr331       O340   2.402       .  S
Zr331       O341   2.426       .  S
Zr331       O342   2.409       .  S
O332        H388   0.990       .  S
O332        H396   0.990       .  S
O333        C353   1.284       .  A
O334        C355   1.294       .  A
O335       Zr345   2.400       .  S
O335        C354   1.272       .  A
O336       Zr344   2.421       .  S
O336        C355   1.285       .  A
O337        C354   1.296       .  A
O338       Zr346   2.467       .  S
O338        C353   1.291       .  A
O339       Zr344   2.392       .  S
O339       Zr346   2.355       .  S
O340       Zr345   2.404       .  S
O340       Zr346   2.354       .  S
O340        H375   0.964       .  S
O341       Zr344   2.426       .  S
O341       Zr361   2.373       .  S
O341        H378   0.964       .  S
O342       Zr345   2.404       .  S
O342       Zr361   2.398       .  S
Zr343       O368   2.440       .  S
Zr343       O362   2.437       .  S
Zr343       O370   2.375       .  S
Zr343       O358   2.413       .  S
Zr343       O349   2.413       .  S
Zr343       O350   2.399       .  S
Zr343       O351   2.367       .  S
Zr343       O352   2.372       .  S
Zr344       O363   2.434       .  S
Zr344       O356   2.434       .  S
Zr344       O357   2.486       .  S
Zr344       O350   2.401       .  S
Zr344       O351   2.382       .  S
Zr345       O347   2.438       .  S
Zr345       O369   2.438       .  S
Zr345       O371   2.431       .  S
Zr345       O349   2.385       .  S
Zr345       O352   2.376       .  S
Zr346       O372   2.438       .  S
Zr346       O373   2.436       .  S
Zr346       O348   2.437       .  S
Zr346       O349   2.423       .  S
Zr346       O350   2.377       .  S
O347        H384   0.990       .  S
O348        H379   0.991       .  S
O348        H393   0.990       .  S
O350        H376   0.963       .  S
O351       Zr361   2.393       .  S
O352       Zr361   2.357       .  S
O352        H377   0.964       .  S
C353       C1298   1.492       .  S
C354       C1341   1.505       .  S
C355       C1288   1.486       .  S
O356        H392   0.990       .  S
O357        C359   1.292       .  A
O358        C359   1.277       .  A
C359       C1471   1.490       .  S
O360       Zr361   2.435       .  S
O360        H389   0.990       .  S
Zr361       O364   2.435       .  S
Zr361       O365   2.439       .  S
Zr361       O366   2.419       .  S
O362        C367   1.286       .  A
O363        H380   0.990       .  S
O363        H395   0.990       .  S
O364        H381   0.990       .  S
O365        H385   0.990       .  S
O365        H394   0.990       .  S
O366        C367   1.282       .  A
C367       C1351   1.482       .  S
O368        H387   0.990       .  S
O368        H391   0.990       .  S
O369        H383   0.990       .  S
O369        H390   0.990       .  S
O370        C374   1.275       .  A
O371        C374   1.284       .  A
O372        H382   0.990       .  S
O373        H386   0.990       .  S
C374       C1511   1.463       .  S
Zr397       O398   2.436       .  S
Zr397       O399   2.430   1_655  S
Zr397       O400   2.477       .  S
Zr397       O403   2.518       .  S
Zr397       O405   2.394   1_655  S
Zr397       O406   2.403       .  S
Zr397       O407   2.430       .  S
Zr397       O408   2.410       .  S
O398        H454   0.990       .  S
O398        H462   0.990       .  S
O399        C419   1.284       .  A
O400        C421   1.297       .  A
O401       Zr411   2.394       .  S
O401        C420   1.270       .  A
O402       Zr410   2.423       .  S
O402        C421   1.285       .  A
O403        C420   1.297       .  A
O404       Zr412   2.467       .  S
O404        C419   1.291       .  A
O405       Zr410   2.394   1_455  S
O405       Zr412   2.358       .  S
O406       Zr411   2.404       .  S
O406       Zr412   2.352   1_655  S
O406        H441   0.965       .  S
O407       Zr410   2.421       .  S
O407       Zr427   2.377       .  S
O407        H444   0.964       .  S
O408       Zr411   2.401       .  S
O408       Zr427   2.402       .  S
Zr409       O434   2.440       .  S
Zr409       O428   2.432       .  S
Zr409       O436   2.386       .  S
Zr409       O424   2.415       .  S
Zr409       O415   2.411       .  S
Zr409       O416   2.398       .  S
Zr409       O417   2.370       .  S
Zr409       O418   2.370       .  S
Zr410       O429   2.433       .  S
Zr410       O422   2.434   1_655  S
Zr410       O423   2.473       .  S
Zr410       O416   2.400       .  S
Zr410       O417   2.381       .  S
Zr411       O413   2.438       .  S
Zr411       O435   2.437       .  S
Zr411       O437   2.423       .  S
Zr411       O415   2.384       .  S
Zr411       O418   2.374       .  S
Zr412       O438   2.436       .  S
Zr412       O439   2.436       .  S
Zr412       O414   2.438       .  S
Zr412       O415   2.428   1_455  S
Zr412       O416   2.369   1_455  S
O413        H450   0.990       .  S
O414        H445   0.990       .  S
O414        H459   0.990       .  S
O416        H442   0.962       .  S
O417       Zr427   2.387       .  S
O418       Zr427   2.353       .  S
O418        H443   0.965       .  S
C419       C1331   1.494       .  S
C420       C1278   1.505       .  S
C421       C1268   1.491       .  S
O422        H458   0.990       .  S
O423        C425   1.290       .  A
O424        C425   1.276       .  A
C425       C1421   1.485       .  S
O426       Zr427   2.438       .  S
O426        H455   0.990       .  S
Zr427       O430   2.436       .  S
Zr427       O431   2.441       .  S
Zr427       O432   2.431       .  S
O428        C433   1.285       .  A
O429        H446   0.990       .  S
O429        H461   0.990       .  S
O430        H447   0.990       .  S
O431        H451   0.990       .  S
O431        H460   0.990       .  S
O432        C433   1.284       .  A
C433       C1481   1.485       .  S
O434        H453   0.990       .  S
O434        H457   0.989       .  S
O435        H449   0.990       .  S
O435        H456   0.990       .  S
O436        C440   1.277       .  A
O437        C440   1.283       .  A
O438        H448   0.991       .  S
O439        H452   0.990       .  S
C440       C1381   1.463       .  S
Zr463       O464   2.435   1_455  S
Zr463       O465   2.433       .  S
Zr463       O466   2.464       .  S
Zr463       O469   2.517   1_455  S
Zr463       O471   2.392       .  S
Zr463       O472   2.398       .  S
Zr463       O473   2.430       .  S
Zr463       O474   2.412       .  S
O464        H520   0.990       .  S
O464        H528   0.990       .  S
O465        C485   1.286       .  A
O466        C487   1.294       .  A
O467       Zr477   2.402       .  S
O467        C486   1.272   1_455  A
O468       Zr476   2.433       .  S
O468        C487   1.287       .  A
O469        C486   1.297       .  A
O470       Zr478   2.468       .  S
O470        C485   1.291       .  A
O471       Zr476   2.391       .  S
O471       Zr478   2.361       .  S
O472       Zr477   2.400       .  S
O472       Zr478   2.354       .  S
O472        H507   0.964       .  S
O473       Zr476   2.418       .  S
O473       Zr493   2.381       .  S
O473        H510   0.965       .  S
O474       Zr477   2.398       .  S
O474       Zr493   2.407       .  S
Zr475       O500   2.441       .  S
Zr475       O494   2.424       .  S
Zr475       O502   2.399       .  S
Zr475       O490   2.416       .  S
Zr475       O481   2.410       .  S
Zr475       O482   2.403       .  S
Zr475       O483   2.375       .  S
Zr475       O484   2.372       .  S
Zr476       O495   2.433       .  S
Zr476       O488   2.435       .  S
Zr476       O489   2.474       .  S
Zr476       O482   2.404       .  S
Zr476       O483   2.387       .  S
Zr477       O479   2.437       .  S
Zr477       O501   2.436       .  S
Zr477       O503   2.423       .  S
Zr477       O481   2.390       .  S
Zr477       O484   2.377       .  S
Zr478       O504   2.437       .  S
Zr478       O505   2.436       .  S
Zr478       O480   2.438       .  S
Zr478       O481   2.427       .  S
Zr478       O482   2.372       .  S
O479        H516   0.990       .  S
O480        H511   0.991       .  S
O480        H525   0.990       .  S
O482        H508   0.964       .  S
O483       Zr493   2.386       .  S
O484       Zr493   2.355       .  S
O484        H509   0.966       .  S
C485       C1371   1.497       .  S
C486       C1281   1.508       .  S
C487       C1261   1.491       .  S
O488        H524   0.990       .  S
O489        C491   1.291       .  A
O490        C491   1.277       .  A
C491       C1301   1.484       .  S
O492       Zr493   2.439       .  S
O492        H521   0.991       .  S
Zr493       O496   2.438       .  S
Zr493       O497   2.440       .  S
Zr493       O498   2.435       .  S
O494        C499   1.283       .  A
O495        H512   0.990       .  S
O495        H527   0.990       .  S
O496        H513   0.990       .  S
O497        H517   0.990       .  S
O497        H526   0.990       .  S
O498        C499   1.284       .  A
C499       C1428   1.481       .  S
O500        H519   0.990       .  S
O500        H523   0.989       .  S
O501        H515   0.990       .  S
O501        H522   0.990       .  S
O502        C506   1.279       .  A
O503        C506   1.284       .  A
O504        H514   0.990       .  S
O505        H518   0.990       .  S
C506       C1321   1.468       .  S
Zr529       O530   2.436       .  S
Zr529       O531   2.426       .  S
Zr529       O532   2.515       .  S
Zr529       O535   2.458       .  S
Zr529       O537   2.367       .  S
Zr529       O538   2.401       .  S
Zr529       O539   2.414       .  S
Zr529       O540   2.404       .  S
O530        H586   0.990       .  S
O530        H594   0.990       .  S
O531        C551   1.285       .  A
O532        C553   1.297       .  A
O533       Zr543   2.428       .  S
O533        C552   1.286       .  A
O534       Zr542   2.396       .  S
O534        C553   1.267       .  A
O535        C552   1.294       .  A
O536       Zr544   2.465       .  S
O536        C551   1.291       .  A
O537       Zr542   2.406       .  S
O537       Zr544   2.359       .  S
O538       Zr543   2.383       .  S
O538       Zr544   2.378       .  S
O538        H573   0.965       .  S
O539       Zr542   2.405       .  S
O539       Zr559   2.405       .  S
O539        H576   0.967       .  S
O540       Zr543   2.398       .  S
O540       Zr559   2.376       .  S
Zr541       O566   2.443       .  S
Zr541       O560   2.403       .  S
Zr541       O568   2.404       .  S
Zr541       O556   2.387       .  S
Zr541       O547   2.387       .  S
Zr541       O548   2.401       .  S
Zr541       O549   2.365       .  S
Zr541       O550   2.374       .  S
Zr542       O561   2.437       .  S
Zr542       O554   2.435       .  S
Zr542       O555   2.431       .  S
Zr542       O548   2.396       .  S
Zr542       O549   2.364       .  S
Zr543       O545   2.438       .  S
Zr543       O567   2.438       .  S
Zr543       O569   2.471       .  S
Zr543       O547   2.375       .  S
Zr543       O550   2.375       .  S
Zr544       O570   2.434       .  S
Zr544       O571   2.434       .  S
Zr544       O546   2.436       .  S
Zr544       O547   2.382       .  S
Zr544       O548   2.427       .  S
O545        H582   0.990       .  S
O546        H577   0.990       .  S
O546        H591   0.990       .  S
O548        H574   0.966       .  S
O549       Zr559   2.361       .  S
O550       Zr559   2.387       .  S
O550        H575   0.965       .  S
C551       C1218   1.488       .  S
C552       C1291   1.486       .  S
C553       C1248   1.489       .  S
O554        H590   0.990       .  S
O555        C557   1.285       .  A
O556        C557   1.277       .  A
C557       C1238   1.472       .  S
O558       Zr559   2.439       .  S
O558        H587   0.990       .  S
Zr559       O562   2.436       .  S
Zr559       O563   2.438       .  S
Zr559       O564   2.421       .  S
O560        C565   1.280       .  A
O561        H578   0.990       .  S
O561        H593   0.990       .  S
O562        H579   0.990       .  S
O563        H583   0.990       .  S
O563        H592   0.990       .  S
O564        C565   1.283       .  A
C565       C1211   1.467       .  S
O566        H585   0.989       .  S
O566        H589   0.990       .  S
O567        H581   0.990       .  S
O567        H588   0.990       .  S
O568        C572   1.274       .  A
O569        C572   1.289       .  A
O570        H580   0.990       .  S
O571        H584   0.990       .  S
C572       C1228   1.481       .  S
Zr595       O596   2.435       .  S
Zr595       O597   2.426       .  S
Zr595       O598   2.510       .  S
Zr595       O601   2.450       .  S
Zr595       O603   2.366       .  S
Zr595       O604   2.401       .  S
Zr595       O605   2.411       .  S
Zr595       O606   2.405       .  S
O596        H652   0.990       .  S
O596        H660   0.990       .  S
O597        C617   1.285       .  A
O598        C619   1.296       .  A
O599       Zr609   2.437       .  S
O599        C618   1.288       .  A
O600       Zr608   2.397       .  S
O600        C619   1.269       .  A
O601        C618   1.293       .  A
O602       Zr610   2.469       .  S
O602        C617   1.292       .  A
O603       Zr608   2.402       .  S
O603       Zr610   2.359       .  S
O604       Zr609   2.375       .  S
O604       Zr610   2.379       .  S
O604        H639   0.962       .  S
O605       Zr608   2.400       .  S
O605       Zr625   2.405       .  S
O605        H642   0.968       .  S
O606       Zr609   2.396       .  S
O606       Zr625   2.373       .  S
Zr607       O632   2.444       .  S
Zr607       O626   2.413       .  S
Zr607       O634   2.400       .  S
Zr607       O622   2.395       .  S
Zr607       O613   2.397       .  S
Zr607       O614   2.401       .  S
Zr607       O615   2.367       .  S
Zr607       O616   2.380       .  S
Zr608       O627   2.435       .  S
Zr608       O620   2.432       .  S
Zr608       O621   2.432       .  S
Zr608       O614   2.389       .  S
Zr608       O615   2.368       .  S
Zr609       O611   2.435       .  S
Zr609       O633   2.440       .  S
Zr609       O635   2.474       .  S
Zr609       O613   2.375       .  S
Zr609       O616   2.379       .  S
Zr610       O636   2.435       .  S
Zr610       O637   2.436       .  S
Zr610       O612   2.436       .  S
Zr610       O613   2.385       .  S
Zr610       O614   2.430       .  S
O611        H648   0.990       .  S
O612        H643   0.990       .  S
O612        H657   0.990       .  S
O614        H640   0.966       .  S
O615       Zr625   2.368       .  S
O616       Zr625   2.387       .  S
O616        H641   0.966       .  S
C617       C1198   1.488       .  S
C618       C1311   1.486       .  S
C619       C1251   1.484       .  S
O620        H656   0.990       .  S
O621        C623   1.285       .  A
O622        C623   1.278       .  A
C623       C1188   1.474       .  S
O624       Zr625   2.439       .  S
O624        H653   0.991       .  S
Zr625       O628   2.437       .  S
Zr625       O629   2.440       .  S
Zr625       O630   2.419       .  S
O626        C631   1.282       .  A
O627        H644   0.990       .  S
O627        H659   0.991       .  S
O628        H645   0.990       .  S
O629        H649   0.990       .  S
O629        H658   0.990       .  S
O630        C631   1.282       .  A
C631       C1168   1.470       .  S
O632        H651   0.989       .  S
O632        H655   0.991       .  S
O633        H647   0.990       .  S
O633        H654   0.990       .  S
O634        C638   1.273       .  A
O635        C638   1.289       .  A
O636        H646   0.990       .  S
O637        H650   0.990       .  S
C638       C1178   1.480       .  S
Zr661       O662   2.434       .  S
Zr661       O663   2.429   1_545  S
Zr661       O664   2.515       .  S
Zr661       O667   2.455       .  S
Zr661       O669   2.364       .  S
Zr661       O670   2.404   1_545  S
Zr661       O671   2.411       .  S
Zr661       O672   2.405       .  S
O662        H718   0.990       .  S
O662        H726   0.990       .  S
O663        C683   1.285       .  A
O664        C685   1.298       .  A
O665       Zr675   2.431       .  S
O665        C684   1.287       .  A
O666       Zr674   2.384       .  S
O666        C685   1.269       .  A
O667        C684   1.293       .  A
O668       Zr676   2.462       .  S
O668        C683   1.291       .  A
O669       Zr674   2.396       .  S
O669       Zr676   2.359   1_545  S
O670       Zr675   2.381   1_565  S
O670       Zr676   2.380       .  S
O670        H705   0.962       .  S
O671       Zr674   2.395       .  S
O671       Zr691   2.408       .  S
O671        H708   0.966       .  S
O672       Zr675   2.393       .  S
O672       Zr691   2.372       .  S
Zr673       O698   2.442       .  S
Zr673       O692   2.410       .  S
Zr673       O700   2.406       .  S
Zr673       O688   2.409       .  S
Zr673       O679   2.392       .  S
Zr673       O680   2.403       .  S
Zr673       O681   2.367       .  S
Zr673       O682   2.377       .  S
Zr674       O693   2.438       .  S
Zr674       O686   2.433       .  S
Zr674       O687   2.404       .  S
Zr674       O680   2.395       .  S
Zr674       O681   2.371       .  S
Zr675       O677   2.438       .  S
Zr675       O699   2.438   1_545  S
Zr675       O701   2.471       .  S
Zr675       O679   2.370       .  S
Zr675       O682   2.383       .  S
Zr676       O702   2.435       .  S
Zr676       O703   2.436       .  S
Zr676       O678   2.438       .  S
Zr676       O679   2.379   1_565  S
Zr676       O680   2.428   1_565  S
O677        H714   0.990       .  S
O678        H709   0.990       .  S
O678        H723   0.990       .  S
O680        H706   0.967       .  S
O681       Zr691   2.369       .  S
O682       Zr691   2.386       .  S
O682        H707   0.967       .  S
C683       C1231   1.485       .  S
C684       C1441   1.484       .  S
C685       C1161   1.497       .  S
O686        H722   0.989       .  S
O687        C689   1.280       .  A
O688        C689   1.280       .  A
C689       C1148   1.468       .  S
O690       Zr691   2.438       .  S
O690        H719   0.990       .  S
Zr691       O694   2.437       .  S
Zr691       O695   2.440       .  S
Zr691       O696   2.416       .  S
O692        C697   1.281       .  A
O693        H710   0.990       .  S
O693        H725   0.990       .  S
O694        H711   0.990       .  S
O695        H715   0.990       .  S
O695        H724   0.990       .  S
O696        C697   1.282       .  A
C697       C1128   1.464       .  S
O698        H717   0.990       .  S
O698        H721   0.990       .  S
O699        H713   0.990       .  S
O699        H720   0.990       .  S
O700        C704   1.273       .  A
O701        C704   1.289       .  A
O702        H712   0.990       .  S
O703        H716   0.991       .  S
C704       C1138   1.481       .  S
Zr727       O728   2.435   1_565  S
Zr727       O729   2.432       .  S
Zr727       O730   2.519       .  S
Zr727       O733   2.471       .  S
Zr727       O735   2.375       .  S
Zr727       O736   2.404       .  S
Zr727       O737   2.416       .  S
Zr727       O738   2.406       .  S
O728        H784   0.990       .  S
O728        H792   0.990       .  S
O729        C749   1.286       .  A
O730        C751   1.299       .  A
O731       Zr741   2.425       .  S
O731        C750   1.286       .  A
O732       Zr740   2.391       .  S
O732        C751   1.270       .  A
O733        C750   1.296       .  A
O734       Zr742   2.457       .  S
O734        C749   1.290       .  A
O735       Zr740   2.399       .  S
O735       Zr742   2.359       .  S
O736       Zr741   2.377       .  S
O736       Zr742   2.379       .  S
O736        H771   0.963       .  S
O737       Zr740   2.406       .  S
O737       Zr757   2.398       .  S
O737        H774   0.966       .  S
O738       Zr741   2.398       .  S
O738       Zr757   2.370       .  S
Zr739       O764   2.441       .  S
Zr739       O758   2.414       .  S
Zr739       O766   2.399       .  S
Zr739       O754   2.394       .  S
Zr739       O745   2.393       .  S
Zr739       O746   2.407       .  S
Zr739       O747   2.366       .  S
Zr739       O748   2.378       .  S
Zr740       O759   2.439       .  S
Zr740       O752   2.436       .  S
Zr740       O753   2.430       .  S
Zr740       O746   2.386       .  S
Zr740       O747   2.368       .  S
Zr741       O743   2.436       .  S
Zr741       O765   2.436       .  S
Zr741       O767   2.477       .  S
Zr741       O745   2.369       .  S
Zr741       O748   2.379       .  S
Zr742       O768   2.436       .  S
Zr742       O769   2.436       .  S
Zr742       O744   2.439       .  S
Zr742       O745   2.383       .  S
Zr742       O746   2.428       .  S
O743        H780   0.990       .  S
O744        H775   0.990       .  S
O744        H789   0.991       .  S
O746        H772   0.967       .  S
O747       Zr757   2.369       .  S
O748       Zr757   2.388       .  S
O748        H773   0.966       .  S
C749       C1118   1.486       .  S
C750       C1488   1.494       .  S
C751       C1158   1.498   1_565  S
O752        H788   0.990       .  S
O753        C755   1.285       .  A
O754        C755   1.277       .  A
C755       C1241   1.473       .  S
O756       Zr757   2.438       .  S
O756        H785   0.990       .  S
Zr757       O760   2.435       .  S
Zr757       O761   2.438       .  S
Zr757       O762   2.417       .  S
O758        C763   1.282       .  A
O759        H776   0.990       .  S
O759        H791   0.990       .  S
O760        H777   0.990       .  S
O761        H781   0.990       .  S
O761        H790   0.990       .  S
O762        C763   1.283       .  A
C763       C1108   1.470       .  S
O764        H783   0.990       .  S
O764        H787   0.990       .  S
O765        H779   0.990       .  S
O765        H786   0.990       .  S
O766        C770   1.271       .  A
O767        C770   1.288       .  A
O768        H778   0.990       .  S
O769        H782   0.990       .  S
C770       C1201   1.480       .  S
Zr793       O794   2.435   1_655  S
Zr793       O795   2.426       .  S
Zr793       O796   2.511       .  S
Zr793       O799   2.474       .  S
Zr793       O801   2.374       .  S
Zr793       O802   2.401       .  S
Zr793       O803   2.414   1_655  S
Zr793       O804   2.400   1_655  S
O794        H850   0.990   1_455  S
O794        H858   0.990       .  S
O795        C815   1.285       .  A
O796        C817   1.296   1_655  A
O797       Zr807   2.423       .  S
O797        C816   1.285       .  A
O798       Zr806   2.378       .  S
O798        C817   1.267       .  A
O799        C816   1.297       .  A
O800       Zr808   2.454       .  S
O800        C815   1.289       .  A
O801       Zr806   2.398   1_655  S
O801       Zr808   2.363       .  S
O802       Zr807   2.372       .  S
O802       Zr808   2.380       .  S
O802        H837   0.964       .  S
O803       Zr806   2.405       .  S
O803       Zr823   2.402       .  S
O803        H840   0.966       .  S
O804       Zr807   2.395   1_455  S
O804       Zr823   2.369       .  S
Zr805       O830   2.444       .  S
Zr805       O824   2.410       .  S
Zr805       O832   2.407       .  S
Zr805       O820   2.409       .  S
Zr805       O811   2.395   1_455  S
Zr805       O812   2.401       .  S
Zr805       O813   2.369       .  S
Zr805       O814   2.378       .  S
Zr806       O825   2.437       .  S
Zr806       O818   2.437       .  S
Zr806       O819   2.421       .  S
Zr806       O812   2.385       .  S
Zr806       O813   2.369       .  S
Zr807       O809   2.436   1_655  S
Zr807       O831   2.439       .  S
Zr807       O833   2.458       .  S
Zr807       O811   2.371       .  S
Zr807       O814   2.378   1_655  S
Zr808       O834   2.436       .  S
Zr808       O835   2.436       .  S
Zr808       O810   2.436       .  S
Zr808       O811   2.384       .  S
Zr808       O812   2.425   1_655  S
O809        H846   0.990       .  S
O810        H841   0.990       .  S
O810        H855   0.990       .  S
O812        H838   0.967       .  S
O813       Zr823   2.371       .  S
O814       Zr823   2.383       .  S
O814        H839   0.965       .  S
C815       C1181   1.481       .  S
C816       C1271   1.491       .  S
C817       C1098   1.492       .  S
O818        H854   0.990       .  S
O819        C821   1.282       .  A
O820        C821   1.281       .  A
C821       C1088   1.474       .  S
O822       Zr823   2.438       .  S
O822        H851   0.990       .  S
Zr823       O826   2.437       .  S
Zr823       O827   2.438       .  S
Zr823       O828   2.422       .  S
O824        C829   1.282       .  A
O825        H842   0.990       .  S
O825        H857   0.990       .  S
O826        H843   0.990       .  S
O827        H847   0.990       .  S
O827        H856   0.990       .  S
O828        C829   1.283       .  A
C829       C1111   1.470       .  S
O830        H849   0.989       .  S
O830        H853   0.990       .  S
O831        H845   0.990       .  S
O831        H852   0.990       .  S
O832        C836   1.275   1_455  A
O833        C836   1.287       .  A
O834        H844   0.990       .  S
O835        H848   0.991       .  S
C836       C1078   1.477       .  S
Zr859       O860   2.435   1_655  S
Zr859       O861   2.440       .  S
Zr859       O862   2.510       .  S
Zr859       O865   2.458       .  S
Zr859       O867   2.374       .  S
Zr859       O868   2.399       .  S
Zr859       O869   2.414       .  S
Zr859       O870   2.405       .  S
O860        H916   0.990       .  S
O860        H924   0.990       .  S
O861        C881   1.287       .  A
O862        C883   1.296       .  A
O863       Zr873   2.432       .  S
O863        C882   1.287       .  A
O864       Zr872   2.382       .  S
O864        C883   1.268       .  A
O865        C882   1.294       .  A
O866       Zr874   2.451       .  S
O866        C881   1.288       .  A
O867       Zr872   2.402       .  S
O867       Zr874   2.359       .  S
O868       Zr873   2.375       .  S
O868       Zr874   2.378       .  S
O868        H903   0.964       .  S
O869       Zr872   2.411       .  S
O869       Zr889   2.394       .  S
O869        H906   0.967       .  S
O870       Zr873   2.399       .  S
O870       Zr889   2.375       .  S
Zr871       O896   2.439       .  S
Zr871       O890   2.409       .  S
Zr871       O898   2.403       .  S
Zr871       O886   2.393       .  S
Zr871       O877   2.395       .  S
Zr871       O878   2.404       .  S
Zr871       O879   2.367       .  S
Zr871       O880   2.378       .  S
Zr872       O891   2.439       .  S
Zr872       O884   2.436       .  S
Zr872       O885   2.435       .  S
Zr872       O878   2.385       .  S
Zr872       O879   2.369       .  S
Zr873       O875   2.437       .  S
Zr873       O897   2.436       .  S
Zr873       O899   2.480       .  S
Zr873       O877   2.375       .  S
Zr873       O880   2.380       .  S
Zr874       O900   2.434       .  S
Zr874       O901   2.435       .  S
Zr874       O876   2.438       .  S
Zr874       O877   2.385       .  S
Zr874       O878   2.426       .  S
O875        H912   0.990       .  S
O876        H907   0.990       .  S
O876        H921   0.991       .  S
O878        H904   0.967       .  S
O879       Zr889   2.368       .  S
O880       Zr889   2.385       .  S
O880        H905   0.966       .  S
C881       C1068   1.487       .  S
C882       C1258   1.491       .  S
C883       C1101   1.491       .  S
O884        H920   0.990       .  S
O885        C887   1.284       .  A
O886        C887   1.278       .  A
C887       C1191   1.475       .  S
O888       Zr889   2.439       .  S
O888        H917   0.990       .  S
Zr889       O892   2.439       .  S
Zr889       O893   2.437       .  S
Zr889       O894   2.411       .  S
O890        C895   1.281       .  A
O891        H908   0.990       .  S
O891        H923   0.990       .  S
O892        H909   0.990       .  S
O893        H913   0.990       .  S
O893        H922   0.990       .  S
O894        C895   1.281       .  A
C895       C1131   1.467       .  S
O896        H915   0.990       .  S
O896        H919   0.990       .  S
O897        H911   0.990       .  S
O897        H918   0.990       .  S
O898        C902   1.271       .  A
O899        C902   1.289       .  A
O900        H910   0.990       .  S
O901        H914   0.990       .  S
C902       C1221   1.482       .  S
Zr925       O926   2.435   1_665  S
Zr925       O927   2.436       .  S
Zr925       O928   2.512       .  S
Zr925       O931   2.462       .  S
Zr925       O933   2.374       .  S
Zr925       O934   2.400       .  S
Zr925       O935   2.417   1_655  S
Zr925       O936   2.406   1_655  S
O926        H982   0.990   1_455  S
O926        H990   0.990       .  S
O927        C947   1.287       .  A
O928        C949   1.297   1_655  A
O929       Zr939   2.434       .  S
O929        C948   1.287       .  A
O930       Zr938   2.387       .  S
O930        C949   1.269       .  A
O931        C948   1.294       .  A
O932       Zr940   2.459       .  S
O932        C947   1.290       .  A
O933       Zr938   2.401   1_655  S
O933       Zr940   2.361       .  S
O934       Zr939   2.379       .  S
O934       Zr940   2.379       .  S
O934        H969   0.962       .  S
O935       Zr938   2.407       .  S
O935       Zr955   2.404       .  S
O935        H972   0.967       .  S
O936       Zr939   2.400   1_455  S
O936       Zr955   2.374       .  S
Zr937       O962   2.439       .  S
Zr937       O956   2.398       .  S
Zr937       O964   2.395       .  S
Zr937       O952   2.401       .  S
Zr937       O943   2.393   1_455  S
Zr937       O944   2.401       .  S
Zr937       O945   2.366       .  S
Zr937       O946   2.379       .  S
Zr938       O957   2.440       .  S
Zr938       O950   2.437       .  S
Zr938       O951   2.430       .  S
Zr938       O944   2.388       .  S
Zr938       O945   2.367       .  S
Zr939       O941   2.436   1_655  S
Zr939       O963   2.439       .  S
Zr939       O965   2.480       .  S
Zr939       O943   2.375       .  S
Zr939       O946   2.379   1_655  S
Zr940       O966   2.434       .  S
Zr940       O967   2.435       .  S
Zr940       O942   2.439       .  S
Zr940       O943   2.385       .  S
Zr940       O944   2.428   1_655  S
O941        H978   0.990       .  S
O942        H973   0.990       .  S
O942        H987   0.990       .  S
O944        H970   0.968       .  S
O945       Zr955   2.366       .  S
O946       Zr955   2.386       .  S
O946        H971   0.966       .  S
C947       C1141   1.488       .  S
C948       C1361   1.491       .  S
C949       C1058   1.494   1_565  S
O950        H986   0.990   1_455  S
O951        C953   1.284       .  A
O952        C953   1.279       .  A
C953       C1091   1.475       .  S
O954       Zr955   2.439       .  S
O954        H983   0.990       .  S
Zr955       O958   2.437       .  S
Zr955       O959   2.439       .  S
Zr955       O960   2.424       .  S
O956        C961   1.279       .  A
O957        H974   0.990       .  S
O957        H989   0.990       .  S
O958        H975   0.990       .  S
O959        H979   0.990       .  S
O959        H988   0.990       .  S
O960        C961   1.283       .  A
C961       C1208   1.466       .  S
O962        H981   0.990       .  S
O962        H985   0.990       .  S
O963        H977   0.990       .  S
O963        H984   0.990       .  S
O964        C968   1.270   1_455  A
O965        C968   1.290       .  A
O966        H976   0.990       .  S
O967        H980   0.990       .  S
C968       C1071   1.482       .  S
Zr991       O992   2.434   1_655  S
Zr991       O993   2.426   1_545  S
Zr991       O994   2.512       .  S
Zr991       O997   2.466       .  S
Zr991       O999   2.373       .  S
Zr991      O1000   2.402   1_545  S
Zr991      O1001   2.411       .  S
Zr991      O1002   2.403       .  S
O992       H1048   0.990       .  S
O992       H1056   0.990       .  S
O993       C1013   1.285       .  A
O994       C1015   1.297       .  A
O995      Zr1005   2.427       .  S
O995       C1014   1.286       .  A
O996      Zr1004   2.384       .  S
O996       C1015   1.268       .  A
O997       C1014   1.295       .  A
O998      Zr1006   2.458       .  S
O998       C1013   1.290       .  A
O999      Zr1004   2.396       .  S
O999      Zr1006   2.362   1_545  S
O1000     Zr1005   2.377   1_565  S
O1000     Zr1006   2.379       .  S
O1000      H1035   0.964       .  S
O1001     Zr1004   2.402       .  S
O1001     Zr1021   2.401       .  S
O1001      H1038   0.967       .  S
O1002     Zr1005   2.401       .  S
O1002     Zr1021   2.374       .  S
Zr1003     O1028   2.440       .  S
Zr1003     O1022   2.409       .  S
Zr1003     O1030   2.398       .  S
Zr1003     O1018   2.402       .  S
Zr1003     O1009   2.396       .  S
Zr1003     O1010   2.405       .  S
Zr1003     O1011   2.367       .  S
Zr1003     O1012   2.379       .  S
Zr1004     O1023   2.438       .  S
Zr1004     O1016   2.436       .  S
Zr1004     O1017   2.411       .  S
Zr1004     O1010   2.394       .  S
Zr1004     O1011   2.371       .  S
Zr1005     O1007   2.436       .  S
Zr1005     O1029   2.439   1_545  S
Zr1005     O1031   2.472       .  S
Zr1005     O1009   2.374       .  S
Zr1005     O1012   2.383       .  S
Zr1006     O1032   2.437       .  S
Zr1006     O1033   2.437       .  S
Zr1006     O1008   2.438       .  S
Zr1006     O1009   2.384   1_565  S
Zr1006     O1010   2.426   1_565  S
O1007      H1044   0.990       .  S
O1008      H1039   0.990       .  S
O1008      H1053   0.990       .  S
O1010      H1036   0.967       .  S
O1011     Zr1021   2.368       .  S
O1012     Zr1021   2.385       .  S
O1012      H1037   0.966       .  S
C1013      C1081   1.482       .  S
C1014      C1401   1.490       .  S
C1015      C1061   1.495       .  S
O1016      H1052   0.990       .  S
O1017      C1019   1.281       .  A
O1018      C1019   1.279       .  A
C1019      C1151   1.469       .  S
O1020     Zr1021   2.439       .  S
O1020      H1049   0.991       .  S
Zr1021     O1024   2.439       .  S
Zr1021     O1025   2.438       .  S
Zr1021     O1026   2.418       .  S
O1022      C1027   1.281       .  A
O1023      H1040   0.990       .  S
O1023      H1055   0.990       .  S
O1024      H1041   0.990       .  S
O1025      H1045   0.990       .  S
O1025      H1054   0.990       .  S
O1026      C1027   1.282       .  A
C1027      C1171   1.467       .  S
O1028      H1047   0.990       .  S
O1028      H1051   0.990       .  S
O1029      H1043   0.990       .  S
O1029      H1050   0.990       .  S
O1030      C1034   1.270       .  A
O1031      C1034   1.288       .  A
O1032      H1042   0.990       .  S
O1033      H1046   0.990       .  S
C1034      C1121   1.478       .  S
C1057      C1058   1.398   1_655  A
C1057      C1062   1.404       .  A
C1057      H1063   1.083       .  S
C1058      C1059   1.417   1_545  A
C1059      C1060   1.404   1_565  A
C1059      H1064   1.082       .  S
C1060      C1061   1.398   1_455  A
C1060      H1065   1.083   1_545  S
C1061      C1062   1.418       .  A
C1062      H1066   1.082       .  S
C1067      C1068   1.409       .  A
C1067      C1072   1.402       .  A
C1067      H1073   1.083       .  S
C1068      C1069   1.406       .  A
C1069      C1070   1.399       .  A
C1069      H1074   1.083   1_655  S
C1070      C1071   1.408       .  A
C1070      H1075   1.083   1_655  S
C1071      C1072   1.404       .  A
C1072      H1076   1.083       .  S
C1077      C1078   1.405       .  A
C1077      C1082   1.400       .  A
C1077      H1083   1.083       .  S
C1078      C1079   1.405   1_655  A
C1079      C1080   1.395   1_455  A
C1079      H1084   1.083       .  S
C1080      C1081   1.406       .  A
C1080      H1085   1.083   1_655  S
C1081      C1082   1.407       .  A
C1082      H1086   1.083       .  S
C1087      C1088   1.406       .  A
C1087      C1092   1.394       .  A
C1087      H1093   1.083       .  S
C1088      C1089   1.404       .  A
C1089      C1090   1.392       .  A
C1089      H1094   1.083       .  S
C1090      C1091   1.407       .  A
C1090      H1095   1.083       .  S
C1091      C1092   1.403       .  A
C1092      H1096   1.083       .  S
C1097      C1098   1.418       .  A
C1097      C1102   1.404       .  A
C1097      H1103   1.082       .  S
C1098      C1099   1.398   1_455  A
C1099      C1100   1.402       .  A
C1099      H1104   1.083       .  S
C1100      C1101   1.416       .  A
C1100      H1105   1.082       .  S
C1101      C1102   1.398   1_655  A
C1102      H1106   1.083       .  S
C1107      C1108   1.404       .  A
C1107      C1112   1.392       .  A
C1107      H1113   1.083       .  S
C1108      C1109   1.405       .  A
C1109      C1110   1.393       .  A
C1109      H1114   1.083       .  S
C1110      C1111   1.403       .  A
C1110      H1115   1.083       .  S
C1111      C1112   1.405       .  A
C1112      H1116   1.083       .  S
C1117      C1118   1.408       .  A
C1117      C1122   1.400       .  A
C1117      H1123   1.083       .  S
C1118      C1119   1.407   1_565  A
C1119      C1120   1.398       .  A
C1119      H1124   1.083       .  S
C1120      C1121   1.406       .  A
C1120      H1125   1.083       .  S
C1121      C1122   1.404   1_545  A
C1122      H1126   1.083       .  S
C1127      C1128   1.402       .  A
C1127      C1132   1.391       .  A
C1127      H1133   1.083       .  S
C1128      C1129   1.403       .  A
C1129      C1130   1.391       .  A
C1129      H1134   1.083       .  S
C1130      C1131   1.404       .  A
C1130      H1135   1.083       .  S
C1131      C1132   1.405       .  A
C1132      H1136   1.083       .  S
C1137      C1138   1.405   1_565  A
C1137      C1142   1.403       .  A
C1137      H1143   1.083       .  S
C1138      C1139   1.406       .  A
C1139      C1140   1.397       .  A
C1139      H1144   1.083       .  S
C1140      C1141   1.406   1_545  A
C1140      H1145   1.083       .  S
C1141      C1142   1.409       .  A
C1142      H1146   1.083       .  S
C1147      C1148   1.404       .  A
C1147      C1152   1.390       .  A
C1147      H1153   1.083       .  S
C1148      C1149   1.404       .  A
C1149      C1150   1.390       .  A
C1149      H1154   1.083       .  S
C1150      C1151   1.405       .  A
C1150      H1155   1.083       .  S
C1151      C1152   1.403       .  A
C1152      H1156   1.083       .  S
C1157      C1158   1.399       .  A
C1157      C1162   1.407       .  A
C1157      H1163   1.083       .  S
C1158      C1159   1.418   1_545  A
C1159      C1160   1.403   1_565  A
C1159      H1164   1.082       .  S
C1160      C1161   1.398       .  A
C1160      H1165   1.083   1_545  S
C1161      C1162   1.419       .  A
C1162      H1166   1.082       .  S
C1167      C1168   1.404       .  A
C1167      C1172   1.391       .  A
C1167      H1173   1.083       .  S
C1168      C1169   1.405       .  A
C1169      C1170   1.394       .  A
C1169      H1174   1.083       .  S
C1170      C1171   1.404       .  A
C1170      H1175   1.083       .  S
C1171      C1172   1.402       .  A
C1172      H1176   1.083       .  S
C1177      C1178   1.405       .  A
C1177      C1182   1.402       .  A
C1177      H1183   1.083       .  S
C1178      C1179   1.406       .  A
C1179      C1180   1.394       .  A
C1179      H1184   1.083       .  S
C1180      C1181   1.405       .  A
C1180      H1185   1.083       .  S
C1181      C1182   1.408       .  A
C1182      H1186   1.083       .  S
C1187      C1188   1.403       .  A
C1187      C1192   1.393       .  A
C1187      H1193   1.083       .  S
C1188      C1189   1.407       .  A
C1189      C1190   1.392       .  A
C1189      H1194   1.083       .  S
C1190      C1191   1.403       .  A
C1190      H1195   1.083       .  S
C1191      C1192   1.407       .  A
C1192      H1196   1.083       .  S
C1197      C1198   1.408       .  A
C1197      C1202   1.396       .  A
C1197      H1203   1.083       .  S
C1198      C1199   1.408       .  A
C1199      C1200   1.403       .  A
C1199      H1204   1.083       .  S
C1200      C1201   1.406       .  A
C1200      H1205   1.083       .  S
C1201      C1202   1.404       .  A
C1202      H1206   1.083       .  S
C1207      C1208   1.405       .  A
C1207      C1212   1.391       .  A
C1207      H1213   1.083       .  S
C1208      C1209   1.402       .  A
C1209      C1210   1.391       .  A
C1209      H1214   1.083       .  S
C1210      C1211   1.405       .  A
C1210      H1215   1.083       .  S
C1211      C1212   1.402       .  A
C1212      H1216   1.083       .  S
C1217      C1218   1.406       .  A
C1217      C1222   1.396       .  A
C1217      H1223   1.083       .  S
C1218      C1219   1.409       .  A
C1219      C1220   1.405       .  A
C1219      H1224   1.083       .  S
C1220      C1221   1.406       .  A
C1220      H1225   1.083       .  S
C1221      C1222   1.406       .  A
C1222      H1226   1.083       .  S
C1227      C1228   1.405       .  A
C1227      C1232   1.402       .  A
C1227      H1233   1.083       .  S
C1228      C1229   1.407       .  A
C1229      C1230   1.397       .  A
C1229      H1234   1.083       .  S
C1230      C1231   1.405       .  A
C1230      H1235   1.083       .  S
C1231      C1232   1.408       .  A
C1232      H1236   1.083       .  S
C1237      C1238   1.408       .  A
C1237      C1242   1.390       .  A
C1237      H1243   1.083       .  S
C1238      C1239   1.402       .  A
C1239      C1240   1.394       .  A
C1239      H1244   1.083       .  S
C1240      C1241   1.408       .  A
C1240      H1245   1.083       .  S
C1241      C1242   1.401       .  A
C1242      H1246   1.083       .  S
C1247      C1248   1.411       .  A
C1247      C1252   1.409       .  A
C1247      H1253   1.083       .  S
C1248      C1249   1.404       .  A
C1249      C1250   1.403       .  A
C1249      H1254   1.081       .  S
C1250      C1251   1.406       .  A
C1250      H1255   1.081       .  S
C1251      C1252   1.406       .  A
C1252      H1256   1.083       .  S
C1257      C1258   1.411       .  A
C1257      C1262   1.400       .  A
C1257      H1263   1.083       .  S
C1258      C1259   1.405       .  A
C1259      C1260   1.401   1_655  A
C1259      H1264   1.083   1_655  S
C1260      C1261   1.411       .  A
C1260      H1265   1.083       .  S
C1261      C1262   1.404   1_455  A
C1262      H1266   1.083       .  S
C1267      C1268   1.403       .  A
C1267      C1272   1.401   1_556  A
C1267      H1273   1.083       .  S
C1268      C1269   1.413   1_556  A
C1269      C1270   1.400       .  A
C1269      H1274   1.083       .  S
C1270      C1271   1.402       .  A
C1270      H1275   1.083       .  S
C1271      C1272   1.413       .  A
C1272      H1276   1.083       .  S
C1277      C1278   1.419       .  A
C1277      C1282   1.410       .  A
C1277      H1283   1.081       .  S
C1278      C1279   1.400       .  A
C1279      C1280   1.407       .  A
C1279      H1284   1.083       .  S
C1280      C1281   1.418       .  A
C1280      H1285   1.081   1_655  S
C1281      C1282   1.402       .  A
C1282      H1286   1.083       .  S
C1287      C1288   1.404       .  A
C1287      C1292   1.400       .  A
C1287      H1293   1.083       .  S
C1288      C1289   1.411       .  A
C1289      C1290   1.397       .  A
C1289      H1294   1.083       .  S
C1290      C1291   1.402       .  A
C1290      H1295   1.083       .  S
C1291      C1292   1.411       .  A
C1292      H1296   1.083       .  S
C1297      C1298   1.408       .  A
C1297      C1302   1.404       .  A
C1297      H1303   1.083       .  S
C1298      C1299   1.409       .  A
C1299      C1300   1.400       .  A
C1299      H1304   1.083       .  S
C1300      C1301   1.406       .  A
C1300      H1305   1.083       .  S
C1301      C1302   1.407       .  A
C1302      H1306   1.083       .  S
C1307      C1308   1.404       .  A
C1307      C1312   1.400   1_556  A
C1307      H1313   1.083       .  S
C1308      C1309   1.410   1_556  A
C1309      C1310   1.397       .  A
C1309      H1314   1.083       .  S
C1310      C1311   1.403       .  A
C1310      H1315   1.083       .  S
C1311      C1312   1.410       .  A
C1312      H1316   1.083   1_554  S
C1317      C1318   1.406       .  A
C1317      C1322   1.388       .  A
C1317      H1323   1.083       .  S
C1318      C1319   1.402       .  A
C1319      C1320   1.391       .  A
C1319      H1324   1.083       .  S
C1320      C1321   1.406       .  A
C1320      H1325   1.083       .  S
C1321      C1322   1.401       .  A
C1322      H1326   1.083       .  S
C1327      C1328   1.409       .  A
C1327      C1332   1.401       .  A
C1327      H1333   1.083       .  S
C1328      C1329   1.406       .  A
C1329      C1330   1.405       .  A
C1329      H1334   1.083       .  S
C1330      C1331   1.409       .  A
C1330      H1335   1.083       .  S
C1331      C1332   1.407       .  A
C1332      H1336   1.083       .  S
C1337      C1338   1.416       .  A
C1337      C1342   1.406       .  A
C1337      H1343   1.079       .  S
C1338      C1339   1.401       .  A
C1339      C1340   1.408       .  A
C1339      H1344   1.083       .  S
C1340      C1341   1.418       .  A
C1340      H1345   1.080       .  S
C1341      C1342   1.401       .  A
C1342      H1346   1.083       .  S
C1347      C1348   1.405       .  A
C1347      C1352   1.400       .  A
C1347      H1353   1.083       .  S
C1348      C1349   1.407       .  A
C1349      C1350   1.397       .  A
C1349      H1354   1.083       .  S
C1350      C1351   1.404       .  A
C1350      H1355   1.083       .  S
C1351      C1352   1.408       .  A
C1352      H1356   1.083       .  S
C1357      C1358   1.404   1_565  A
C1357      C1362   1.399       .  A
C1357      H1363   1.083       .  S
C1358      C1359   1.411       .  A
C1359      C1360   1.402       .  A
C1359      H1364   1.083       .  S
C1360      C1361   1.405   1_545  A
C1360      H1365   1.083       .  S
C1361      C1362   1.410       .  A
C1362      H1366   1.083       .  S
C1367      C1368   1.408   1_455  A
C1367      C1372   1.408       .  A
C1367      H1373   1.083       .  S
C1368      C1369   1.406       .  A
C1369      C1370   1.399       .  A
C1369      H1374   1.083       .  S
C1370      C1371   1.407   1_655  A
C1370      H1375   1.083       .  S
C1371      C1372   1.410       .  A
C1372      H1376   1.083       .  S
C1377      C1378   1.405       .  A
C1377      C1382   1.387       .  A
C1377      H1383   1.083       .  S
C1378      C1379   1.402       .  A
C1379      C1380   1.388       .  A
C1379      H1384   1.083       .  S
C1380      C1381   1.406       .  A
C1380      H1385   1.083       .  S
C1381      C1382   1.401       .  A
C1382      H1386   1.083       .  S
C1387      C1388   1.406       .  A
C1387      C1392   1.399       .  A
C1387      H1393   1.083       .  S
C1388      C1389   1.406       .  A
C1389      C1390   1.399       .  A
C1389      H1394   1.083       .  S
C1390      C1391   1.406       .  A
C1390      H1395   1.083       .  S
C1391      C1392   1.407       .  A
C1392      H1396   1.083       .  S
C1397      C1398   1.404       .  A
C1397      C1402   1.400   1_556  A
C1397      H1403   1.083       .  S
C1398      C1399   1.412   1_656  A
C1399      C1400   1.402   1_455  A
C1399      H1404   1.083       .  S
C1400      C1401   1.404       .  A
C1400      H1405   1.083   1_655  S
C1401      C1402   1.411       .  A
C1402      H1406   1.083       .  S
C1407      C1408   1.403   1_545  A
C1407      C1412   1.413       .  A
C1407      H1413   1.083       .  S
C1408      C1409   1.418       .  A
C1409      C1410   1.407       .  A
C1409      H1414   1.080   1_655  S
C1410      C1411   1.401   1_565  A
C1410      H1415   1.083       .  S
C1411      C1412   1.420       .  A
C1412      H1416   1.080       .  S
C1417      C1418   1.408   1_655  A
C1417      C1422   1.399       .  A
C1417      H1423   1.083       .  S
C1418      C1419   1.408       .  A
C1419      C1420   1.405       .  A
C1419      H1424   1.083       .  S
C1420      C1421   1.408   1_455  A
C1420      H1425   1.083       .  S
C1421      C1422   1.405       .  A
C1422      H1426   1.083       .  S
C1427      C1428   1.406       .  A
C1427      C1432   1.399       .  A
C1427      H1433   1.083       .  S
C1428      C1429   1.405       .  A
C1429      C1430   1.397       .  A
C1429      H1434   1.083       .  S
C1430      C1431   1.407       .  A
C1430      H1435   1.083       .  S
C1431      C1432   1.406       .  A
C1432      H1436   1.083       .  S
C1437      C1438   1.410       .  A
C1437      C1442   1.399       .  A
C1437      H1443   1.083       .  S
C1438      C1439   1.403       .  A
C1439      C1440   1.397       .  A
C1439      H1444   1.083       .  S
C1440      C1441   1.409       .  A
C1440      H1445   1.083       .  S
C1441      C1442   1.404       .  A
C1442      H1446   1.083       .  S
C1447      C1448   1.406       .  A
C1447      C1452   1.403       .  A
C1447      H1453   1.083       .  S
C1448      C1449   1.408   1_545  A
C1449      C1450   1.400   1_565  A
C1449      H1454   1.083       .  S
C1450      C1451   1.406       .  A
C1450      H1455   1.083   1_545  S
C1451      C1452   1.409       .  A
C1452      H1456   1.083       .  S
C1457      C1458   1.404       .  A
C1457      C1462   1.386       .  A
C1457      H1463   1.084       .  S
C1458      C1459   1.402       .  A
C1459      C1460   1.387       .  A
C1459      H1464   1.083       .  S
C1460      C1461   1.404       .  A
C1460      H1465   1.083       .  S
C1461      C1462   1.402       .  A
C1462      H1466   1.083       .  S
C1467      C1468   1.408       .  A
C1467      C1472   1.400       .  A
C1467      H1473   1.083       .  S
C1468      C1469   1.410       .  A
C1469      C1470   1.407       .  A
C1469      H1474   1.083       .  S
C1470      C1471   1.407       .  A
C1470      H1475   1.083       .  S
C1471      C1472   1.407       .  A
C1472      H1476   1.083       .  S
C1477      C1478   1.407       .  A
C1477      C1482   1.398       .  A
C1477      H1483   1.083       .  S
C1478      C1479   1.404       .  A
C1479      C1480   1.399       .  A
C1479      H1484   1.083       .  S
C1480      C1481   1.408       .  A
C1480      H1485   1.083       .  S
C1481      C1482   1.405       .  A
C1482      H1486   1.083       .  S
C1487      C1488   1.405   1_545  A
C1487      C1492   1.404       .  A
C1487      H1493   1.083       .  S
C1488      C1489   1.412       .  A
C1489      C1490   1.399   1_554  A
C1489      H1494   1.083       .  S
C1490      C1491   1.404   1_565  A
C1490      H1495   1.083       .  S
C1491      C1492   1.412   1_556  A
C1492      H1496   1.083       .  S
C1497      C1498   1.405   1_565  A
C1497      C1502   1.399   1_565  A
C1497      H1503   1.083       .  S
C1498      C1499   1.407       .  A
C1499      C1500   1.403       .  A
C1499      H1504   1.083       .  S
C1500      C1501   1.408       .  A
C1500      H1505   1.083       .  S
C1501      C1502   1.408       .  A
C1502      H1506   1.083   1_545  S
C1507      C1508   1.401       .  A
C1507      C1512   1.387       .  A
C1507      H1513   1.083       .  S
C1508      C1509   1.406       .  A
C1509      C1510   1.388       .  A
C1509      H1514   1.083       .  S
C1510      C1511   1.400       .  A
C1510      H1515   1.083       .  S
C1511      C1512   1.407       .  A
C1512      H1516   1.083       .  S
C1517      C1518   1.407       .  A
C1517      C1522   1.401       .  A
C1517      H1523   1.083       .  S
C1518      C1519   1.407       .  A
C1519      C1520   1.407       .  A
C1519      H1524   1.083       .  S
C1520      C1521   1.410       .  A
C1520      H1525   1.083       .  S
C1521      C1522   1.408       .  A
C1522      H1526   1.083       .  S
C1527      C1528   1.419       .  A
C1527      C1532   1.411       .  A
C1527      H1533   1.080       .  S
C1528      C1529   1.400   1_545  A
C1529      C1530   1.407       .  A
C1529      H1534   1.083       .  S
C1530      C1531   1.417       .  A
C1530      H1535   1.079       .  S
C1531      C1532   1.402   1_565  A
C1532      H1536   1.083       .  S
