geometry optimzed in LAMMPS
_audit_creation_date              2020-11-30 
_audit_creation_method            'lammps2cif' 
_symmetry_space_group_name_H-M    'P1' 
_symmetry_Int_Tables_number       1 
_symmetry_cell_setting            triclinic 
loop_ 
_symmetry_equiv_pos_as_xyz 
  x,y,z 
_cell_length_a                    39.0862645 
_cell_length_b                    38.98693101613274 
_cell_length_c                    41.527168075873064 
_cell_angle_alpha                 90.07996947211696 
_cell_angle_beta                  90.1288775624835 
_cell_angle_gamma                 120.8898641148234 
loop_ 
_atom_site_label 
_atom_site_type_symbol 
_atom_site_fract_x 
_atom_site_fract_y 
_atom_site_fract_z 
_atom_site_charge 
O1          O  0.26792133  0.48980460  0.64166235    -0.82300
C2          C  0.40070083  0.53446831  0.55980925     0.97100
O3          O  0.37725333  0.54751746  0.55988826    -0.71400
O4          O  0.30314478  0.49292776  0.55193491    -0.75000
Al5        Al  0.33034361  0.53413732  0.58265539     1.49000
C6          C  0.26913119  0.46308707  0.55702528     0.92300
O7          O  0.30586653  0.42319792  0.60826931    -0.81200
O8          O  0.36615330  0.51232563  0.66918905    -0.74800
Al9        Al  0.28885142  0.45837803  0.62415842     1.90100
O10         O  0.36745377  0.45838108  0.62688874    -0.73900
O11         O  0.40543883  0.57049037  0.62682122    -0.73700
O12         O  0.40225027  0.51481883  0.58329891    -0.79400
O13         O  0.35709964  0.57869431  0.60991628    -0.77600
O14         O  0.33364890  0.50184534  0.61071313    -1.13700
O15         O  0.28246621  0.52861009  0.59936555    -0.72900
C16         C  0.26506467  0.51608667  0.62602309     0.97800
C17         C  0.33899606  0.42642339  0.61518356     0.94200
Al18       Al  0.38125071  0.51292942  0.62546526     1.55600
O19         O  0.25892270  0.44911454  0.58504766    -0.77500
C20         C  0.39092837  0.59263391  0.62273738     0.98400
C21         C  0.33589742  0.48422868  0.68288600     0.93300
O22         O  0.30750358  0.45769171  0.66638091    -0.82800
O23         O  0.21781458  0.73514512  0.64458528    -0.82300
C24         C  0.12480072  0.59961525  0.56475775     0.97100
O25         O  0.16233004  0.62074611  0.56573694    -0.71400
O26         O  0.18769704  0.69578091  0.55563999    -0.75000
Al27       Al  0.19844688  0.66874194  0.58817753     1.49000
C28         C  0.19306419  0.73026125  0.55902798     0.92300
O29         O  0.11536478  0.69843389  0.60871957    -0.81200
O30         O  0.13844797  0.63806404  0.67277370    -0.74800
Al31       Al  0.16642418  0.71435053  0.62606478     1.90100
O32         O  0.08471199  0.63813278  0.62987742    -0.73900
O33         O  0.15371492  0.59495104  0.63201752    -0.73700
O34         O  0.10385246  0.60066889  0.58735357    -0.79400
O35         O  0.21340744  0.64177140  0.61750580    -0.77600
O36         O  0.16276621  0.66824777  0.61454981    -1.13700
O37         O  0.24235348  0.71685155  0.60496608    -0.72900
C38         C  0.24708625  0.73753696  0.62983432     0.97800
C39         C  0.08379570  0.66687615  0.61666410     0.94200
Al40       Al  0.12338560  0.62184293  0.62944245     1.55600
O41         O  0.18931030  0.74226163  0.58632770    -0.77500
C42         C  0.19068127  0.60791210  0.62959322     0.98400
C43         C  0.14187882  0.66901713  0.68576393     0.93300
O44         O  0.14556035  0.69748621  0.66863319    -0.82800
O45         O  0.50450895  0.79046784  0.63885655    -0.82300
C46         C  0.47471241  0.89477647  0.56420802     0.97100
O47         O  0.45691996  0.85720773  0.56272342    -0.71400
O48         O  0.50478813  0.82990765  0.55131572    -0.75000
Al49       Al  0.46491185  0.81825266  0.58288839     1.49000
C50         C  0.53236923  0.82264727  0.55595288     0.92300
O51         O  0.57905481  0.89729596  0.61008087    -0.81200
O52         O  0.49187517  0.87152920  0.67109092    -0.74800
Al53       Al  0.53992463  0.84439779  0.62400593     1.90100
O54         O  0.55017308  0.92728746  0.63224380    -0.73900
O55         O  0.43739008  0.86175959  0.62898031    -0.73700
O56         O  0.49678360  0.91364361  0.58779135    -0.79400
O57         O  0.42155726  0.80243651  0.61128357    -0.77600
O58         O  0.49982725  0.85097247  0.61176588    -1.13700
O59         O  0.46473736  0.77194796  0.59677122    -0.72900
C60         C  0.47658428  0.76333499  0.62205294     0.97800
C61         C  0.57999178  0.92875164  0.61920214     0.94200
Al62       Al  0.49460331  0.89024870  0.62865906     1.55600
O63         O  0.54618134  0.82474823  0.58379457    -0.77500
C64         C  0.41236903  0.82501615  0.62566631     0.98400
C65         C  0.51775313  0.86596553  0.68420802     0.93300
O66         O  0.54211354  0.86168244  0.66731617    -0.82800
O67         O  0.21557363  0.49421050  0.36760922    -0.82300
C68         C  0.12191414  0.53262016  0.44735215     0.97100
O69         O  0.15902910  0.54726167  0.44805608    -0.71400
O70         O  0.17806720  0.49321819  0.45577410    -0.75000
Al71       Al  0.19417308  0.53538670  0.42621095     1.49000
C72         C  0.18211200  0.46367883  0.45065854     0.92300
O73         O  0.10859976  0.42457957  0.39560971    -0.81200
O74         O  0.14011029  0.51599530  0.33803274    -0.74800
Al75       Al  0.16203550  0.46145159  0.38250847     1.90100
O76         O  0.08236266  0.45910139  0.37721424    -0.73900
O77         O  0.15697104  0.57163077  0.38193718    -0.73700
O78         O  0.10161164  0.51319740  0.42310517    -0.79400
O79         O  0.21378135  0.58069953  0.39983202    -0.77600
O80         O  0.15966298  0.50359091  0.39666742    -1.13700
O81         O  0.23800404  0.53133559  0.41116220    -0.72900
C82         C  0.24416710  0.51977971  0.38460735     0.97800
C83         C  0.07864486  0.42682596  0.38743189     0.94200
Al84       Al  0.12322616  0.51398862  0.38127444     1.55600
O85         O  0.18002514  0.45081310  0.42237250    -0.77500
C86         C  0.19409170  0.59408114  0.38641599     0.98400
C87         C  0.14398966  0.48957528  0.32377079     0.93300
O88         O  0.14578276  0.46290076  0.33950467    -0.82800
O89         O  0.28277054  0.79072023  0.36848774    -0.82300
C90         C  0.41416274  0.89588390  0.44779472     0.97100
O91         O  0.39620827  0.85825399  0.44741813    -0.71400
O92         O  0.32004731  0.82683585  0.45674776    -0.75000
Al93       Al  0.35016269  0.81864047  0.42525189     1.49000
C94         C  0.28494026  0.81931362  0.45243805     0.92300
O95         O  0.31185179  0.89468017  0.39968130    -0.81200
O96         O  0.37856455  0.87651427  0.33927315    -0.74800
Al97       Al  0.30007492  0.84322867  0.38474936     1.90100
O98         O  0.37248579  0.92828491  0.37975279    -0.73900
O99         O  0.42369447  0.86718647  0.38181777    -0.73700
O100        O  0.41179506  0.91506632  0.42438199    -0.79400
O101        O  0.38006580  0.80628597  0.39691226    -0.77600
O102        O  0.34761865  0.85166876  0.39749810    -1.13700
O103        O  0.30485840  0.77170875  0.40930931    -0.72900
C104        C  0.28378309  0.76356690  0.38426352     0.97800
C105        C  0.34230666  0.92730274  0.39159811     0.94200
Al106      Al  0.39275943  0.89324585  0.38249104     1.55600
O107        O  0.27289375  0.82133339  0.42467572    -0.77500
C108        C  0.41295056  0.83071039  0.38426634     0.98400
C109        C  0.34683865  0.86983891  0.32559585     0.93300
O110        O  0.31649652  0.86232383  0.34189504    -0.82800
O111        O  0.51888978  0.74259045  0.36492916    -0.82300
C112        C  0.46806104  0.60509548  0.44318603     0.97100
O113        O  0.45222925  0.62624388  0.44146612    -0.71400
O114        O  0.50419578  0.70080251  0.45227099    -0.75000
Al115      Al  0.46672542  0.67454054  0.41912437     1.49000
C116        C  0.53564321  0.73434004  0.44977030     0.92300
O117        O  0.58048465  0.70004346  0.39974585    -0.81200
O118        O  0.49483756  0.64220639  0.33541822    -0.74800
Al119      Al  0.54692596  0.71851074  0.38280847     1.90100
O120        O  0.54747672  0.64024482  0.37797831    -0.73900
O121        O  0.43576961  0.60028870  0.37651697    -0.73700
O122        O  0.49049121  0.60568912  0.42109985    -0.79400
O123        O  0.42468709  0.64822724  0.38881335    -0.77600
O124        O  0.50223114  0.67321107  0.39357242    -1.13700
O125        O  0.47357086  0.72315204  0.40281784    -0.72900
C126        C  0.49178332  0.74520287  0.37917416     0.97800
C127        C  0.57818136  0.66761522  0.39180402     0.94200
Al128      Al  0.49302037  0.62617796  0.37880479     1.55600
O129        O  0.55347325  0.74575617  0.42311916    -0.77500
C130        C  0.41234869  0.61351725  0.37821881     0.98400
C131        C  0.52332213  0.67301328  0.32251500     0.93300
O132        O  0.54910423  0.70137836  0.33980801    -0.82800
O133        O  0.70459276  0.54912840  0.33745705    -0.82300
C134        C  0.60906245  0.47241601  0.44479244     0.97100
O135        O  0.59597447  0.47651685  0.41811244    -0.71400
O136        O  0.63229650  0.55059468  0.40061593    -0.75000
Al137      Al  0.62313770  0.50399788  0.37967238     1.49000
C138        C  0.66067466  0.58557250  0.39612625     0.92300
O139        O  0.73190309  0.56849602  0.42675902    -0.81200
O140        O  0.70215810  0.46744046  0.37985600    -0.74800
Al141      Al  0.71562297  0.55670148  0.38210893     1.90100
O142        O  0.71978546  0.50810779  0.43700963    -0.73900
O143        O  0.62629071  0.42936356  0.39446472    -0.73700
O144        O  0.64338066  0.47709307  0.44738038    -0.79400
O145        O  0.60656663  0.45519431  0.35737185    -0.77600
O146        O  0.67039694  0.51150457  0.39145732    -1.13700
O147        O  0.64104648  0.52977415  0.33876845    -0.72900
C148        C  0.67267470  0.54050493  0.32305365     0.97800
C149        C  0.73730776  0.54480886  0.44388208     0.94200
Al150      Al  0.67266814  0.47362362  0.41288109     1.55600
O151        O  0.69376187  0.59173463  0.38556057    -0.77500
C152        C  0.60502235  0.42529592  0.37028985     0.98400
C153        C  0.73668607  0.49484275  0.37201143     0.93300
O154        O  0.74723116  0.53133791  0.37584589    -0.82800
O155        O  0.46620113  0.30634422  0.67101401    -0.82300
C156        C  0.53028014  0.39663708  0.55819655     0.97100
O157        O  0.53073801  0.41108681  0.58557294    -0.71400
O158        O  0.45900684  0.37644821  0.60867281    -0.75000
Al159      Al  0.50730099  0.38540431  0.62567653     1.49000
C160        C  0.42437993  0.34795905  0.61431729     0.92300
O161        O  0.43481285  0.27380965  0.58403693    -0.81200
O162        O  0.54111097  0.30477406  0.61888413    -0.74800
Al163      Al  0.45311365  0.29267920  0.62709923     1.90100
O164        O  0.49240841  0.28527238  0.56633838    -0.73900
O165        O  0.57770137  0.37953564  0.60317926    -0.73700
O166        O  0.52252174  0.36118719  0.55518984    -0.79400
O167        O  0.55803140  0.40069333  0.64396564    -0.77600
O168        O  0.49689442  0.33698045  0.61381053    -1.13700
O169        O  0.48621943  0.37006774  0.66810874    -0.72900
C170        C  0.47626252  0.33917586  0.68461535     0.97800
C171        C  0.45526754  0.26911135  0.56297113     0.94200
Al172      Al  0.53055888  0.33297480  0.58805811     1.55600
O173        O  0.41878207  0.31539405  0.62595048    -0.77500
C174        C  0.58544319  0.40029076  0.62841452     0.98400
C175        C  0.51581292  0.27202903  0.63136903     0.93300
O176        O  0.47897542  0.26092977  0.63140549    -0.82800
O177        O  0.46141491  0.17498285  0.33633029    -0.82300
C178        C  0.52428980  0.14966537  0.45006395     0.97100
O179        O  0.52443505  0.13530838  0.42271800    -0.71400
O180        O  0.45321197  0.09732711  0.39797077    -0.75000
Al181      Al  0.50197551  0.13769284  0.38195216     1.49000
C182        C  0.41884184  0.09107951  0.39251068     0.92300
O183        O  0.43131996  0.17762871  0.42334636    -0.81200
O184        O  0.53824099  0.25296422  0.38844003    -0.74800
Al185      Al  0.44909522  0.17620003  0.38023154     1.90100
O186        O  0.48971050  0.22483532  0.44038486    -0.73900
O187        O  0.57316840  0.21484395  0.40564623    -0.73700
O188        O  0.51729054  0.17773882  0.45267650    -0.79400
O189        O  0.55292764  0.17413699  0.36437242    -0.77600
O190        O  0.49233187  0.17587363  0.39376360    -1.13700
O191        O  0.48179886  0.13216183  0.33906985    -0.72900
C192        C  0.47147230  0.15262244  0.32263567     0.97800
C193        C  0.45251433  0.20444484  0.44362922     0.94200
Al194      Al  0.52659274  0.21430180  0.41962731     1.55600
O195        O  0.41371107  0.11847944  0.38162766    -0.77500
C196        C  0.58053777  0.20228446  0.38022294     0.98400
C197        C  0.51364813  0.26027208  0.37524043     0.93300
O198        O  0.47649620  0.23448741  0.37535536    -0.82800
O199        O  0.83667509  0.54012200  0.66946675    -0.82300
C200        C  0.87498277  0.47859973  0.56186985     0.97100
O201        O  0.88838883  0.48100255  0.58994208    -0.71400
O202        O  0.91858670  0.55463343  0.60825014    -0.75000
Al203      Al  0.88281769  0.50629477  0.62764630     1.49000
C204        C  0.92153115  0.58788417  0.61302034     0.92300
O205        O  0.83312774  0.56569525  0.58148230    -0.81200
O206        O  0.76428190  0.45836091  0.61670031    -0.74800
Al207      Al  0.83555795  0.55053876  0.62505502     1.90100
O208        O  0.79398478  0.50498696  0.56305559    -0.73900
O209        O  0.80983270  0.42894128  0.60731321    -0.73700
O210        O  0.84508033  0.48193105  0.55690335    -0.79400
O211        O  0.85047175  0.45658555  0.64840562    -0.77600
O212        O  0.84136577  0.50957871  0.61368607    -1.13700
O213        O  0.88712813  0.53045725  0.66849155    -0.72900
C214        C  0.86244969  0.53564341  0.68399792     0.97800
C215        C  0.81032685  0.54228152  0.55985170     0.94200
Al216      Al  0.80616583  0.47169696  0.58809317     1.55600
O217        O  0.89251238  0.59018252  0.62411955    -0.77500
C218        C  0.82418170  0.42604762  0.63378927     0.98400
C219        C  0.75350358  0.48130142  0.62800567     0.93300
O220        O  0.77749915  0.51887607  0.62845890    -0.82800
O221        O  0.83012663  0.31416269  0.33538301    -0.82300
C222        C  0.87303281  0.40826438  0.44725550     0.97100
O223        O  0.88735892  0.42174678  0.41971072    -0.71400
O224        O  0.91460342  0.37853548  0.39660140    -0.75000
Al225      Al  0.87983052  0.39362286  0.37966407     1.49000
C226        C  0.91531289  0.34751440  0.38973930     0.92300
O227        O  0.82619964  0.28209175  0.42277173    -0.81200
O228        O  0.76144629  0.32536774  0.38765289    -0.74800
Al229      Al  0.82875337  0.30092490  0.37938980     1.90100
O230        O  0.78567653  0.30115266  0.44013274    -0.73900
O231        O  0.81009960  0.40023210  0.40280842    -0.73700
O232        O  0.84111779  0.37516998  0.45036268    -0.79400
O233        O  0.84928021  0.41421202  0.36117050    -0.77600
O234        O  0.83708622  0.34823790  0.39220372    -1.13700
O235        O  0.88162355  0.37523927  0.33730944    -0.72900
C236        C  0.85676737  0.34498944  0.32126179     0.97800
C237        C  0.80149362  0.28017551  0.44333925     0.94200
Al238      Al  0.80249948  0.35036406  0.41810790     1.55600
O239        O  0.88459055  0.31655741  0.37904564    -0.77500
C240        C  0.82444716  0.41888386  0.37686067     0.98400
C241        C  0.74863708  0.29060907  0.37688310     0.93300
O242        O  0.77097625  0.27575770  0.37649183    -0.82800
O243        O  0.70313417  0.17716231  0.67029302    -0.82300
C244        C  0.60540534  0.15067085  0.56179348     0.97100
O245        O  0.59379851  0.13272130  0.58835386    -0.71400
O246        O  0.63235687  0.09799805  0.60716942    -0.75000
Al247      Al  0.62160105  0.13505719  0.62696753     1.49000
C248        C  0.66121937  0.09345870  0.61359883     0.92300
O249        O  0.73007549  0.18184321  0.58127460    -0.81200
O250        O  0.70067820  0.25381104  0.62474510    -0.74800
Al251      Al  0.71427943  0.17908624  0.62567385     1.90100
O252        O  0.71612849  0.22780737  0.56779057    -0.73900
O253        O  0.62464337  0.21351062  0.61179531    -0.73700
O254        O  0.63944507  0.18144509  0.55876777    -0.79400
O255        O  0.60355259  0.16646857  0.64814646    -0.77600
O256        O  0.66852338  0.17656580  0.61514158    -1.13700
O257        O  0.63991752  0.12965680  0.66827976    -0.72900
C258        C  0.67111186  0.15252632  0.68427587     0.97800
C259        C  0.73286664  0.20813578  0.56178771     0.94200
Al260      Al  0.67017500  0.21589625  0.59272061     1.55600
O261        O  0.69352612  0.12220890  0.62438296    -0.77500
C262        C  0.60274693  0.19537973  0.63551489     0.98400
C263        C  0.73472809  0.26182792  0.63399042     0.93300
O264        O  0.74565477  0.23662194  0.63038183    -0.82800
O265        O  0.73069557  0.51877928  0.13920704    -0.82300
C266        C  0.59457584  0.48086177  0.06240101     0.97100
O267        O  0.61378073  0.46299087  0.06298664    -0.71400
O268        O  0.68923309  0.51248165  0.05199753    -0.75000
Al269      Al  0.66142254  0.47377879  0.08432362     1.49000
C270        C  0.72374204  0.54246958  0.05551971     0.92300
O271        O  0.69593727  0.58944037  0.10925460    -0.81200
O272        O  0.63266256  0.50303370  0.17034376    -0.74800
Al273      Al  0.71023435  0.55147096  0.12367612     1.90100
O274        O  0.63538374  0.55871726  0.12917717    -0.73900
O275        O  0.58876894  0.44565166  0.12849461    -0.73700
O276        O  0.59727072  0.50352734  0.08516321    -0.79400
O277        O  0.63367397  0.43124964  0.11364005    -0.77600
O278        O  0.66318543  0.50958126  0.11176322    -1.13700
O279        O  0.70863068  0.47601989  0.09907102    -0.72900
C280        C  0.73113282  0.49140026  0.12314129     0.97800
C281        C  0.66467615  0.58935226  0.11717135     0.94200
Al282      Al  0.61754070  0.50332843  0.12707588     1.55600
O283        O  0.73613471  0.55805372  0.08296825    -0.77500
C284        C  0.60035869  0.42088998  0.12602185     0.98400
C285        C  0.66430414  0.52962878  0.18376611     0.93300
O286        O  0.69447451  0.55313033  0.16714433    -0.82800
O287        O  0.48817093  0.27974472  0.86747177    -0.82300
C288        C  0.52902505  0.41518345  0.94575214     0.97100
O289        O  0.54495982  0.39414400  0.94582348    -0.71400
O290        O  0.49257299  0.31927227  0.95566659    -0.75000
Al291      Al  0.53261629  0.34610711  0.92433265     1.49000
C292        C  0.46218934  0.28515188  0.95161632     0.92300
O293        O  0.42012160  0.31654567  0.89803696    -0.81200
O294        O  0.50843723  0.37785968  0.83764483    -0.74800
Al295      Al  0.45634737  0.30062817  0.88344271     1.90100
O296        O  0.45277691  0.37745248  0.87818554    -0.73900
O297        O  0.56548236  0.41980078  0.87997923    -0.73700
O298        O  0.50793598  0.41418782  0.92238903    -0.79400
O299        O  0.57605475  0.37259833  0.89609284    -0.77600
O300        O  0.49889383  0.34670599  0.89616659    -1.13700
O301        O  0.52834443  0.29796025  0.90925432    -0.72900
C302        C  0.51466188  0.27802684  0.88366569     0.97800
C303        C  0.42166318  0.34864177  0.89031205     0.94200
Al304      Al  0.50781305  0.39334859  0.88072783     1.55600
O305        O  0.44796444  0.27310737  0.92374372    -0.77500
C306        C  0.58846749  0.40612861  0.88315250     0.98400
C307        C  0.48140273  0.34672880  0.82395162     0.93300
O308        O  0.45571521  0.31759544  0.84035327    -0.82800
O309        O  0.72684469  0.22564887  0.86839182    -0.82300
C310        C  0.59016587  0.12740918  0.94440615     0.97100
O311        O  0.61200330  0.16491522  0.94506275    -0.71400
O312        O  0.68644862  0.18791400  0.95567013    -0.75000
Al313      Al  0.66041628  0.20186999  0.92450518     1.49000
C314        C  0.72061189  0.19263290  0.95194727     0.92300
O315        O  0.68907031  0.11909494  0.89712122    -0.81200
O316        O  0.62942310  0.14720564  0.83691875    -0.74800
Al317      Al  0.70549030  0.17210580  0.88344595     1.90100
O318        O  0.62870607  0.09052827  0.87633322    -0.73900
O319        O  0.58730831  0.16060656  0.87961062    -0.73700
O320        O  0.59166861  0.10734588  0.92117182    -0.79400
O321        O  0.63445786  0.21954866  0.89631452    -0.77600
O322        O  0.65968456  0.16780554  0.89590319    -1.13700
O323        O  0.70914477  0.24681959  0.91061340    -0.72900
C324        C  0.72985124  0.25377845  0.88560997     0.97800
C325        C  0.65737654  0.08824523  0.88792273     0.94200
Al326      Al  0.61324730  0.12958484  0.87974096     1.55600
O327        O  0.73265820  0.19084911  0.92414004    -0.77500
C328        C  0.60080265  0.19759228  0.88341682     0.98400
C329        C  0.66017290  0.15129663  0.82334275     0.93300
O330        O  0.68903440  0.15508560  0.83997968    -0.82800
O331        O  0.78506753  0.51680306  0.86515768    -0.82300
C332        C  0.88413141  0.48506986  0.94527268     0.97100
O333        O  0.84661018  0.46785637  0.94569651    -0.71400
O334        O  0.82099934  0.51721524  0.95409364    -0.75000
Al335      Al  0.80900659  0.47663495  0.92347152     1.49000
C336        C  0.81418563  0.54503375  0.94925184     0.92300
O337        O  0.88983651  0.59021810  0.89706068    -0.81200
O338        O  0.86524100  0.50141631  0.83722665    -0.74800
Al339      Al  0.83778748  0.55151250  0.88168033     1.90100
O340        O  0.92006299  0.56041980  0.87696594    -0.73900
O341        O  0.85279678  0.44705515  0.88068431    -0.73700
O342        O  0.90390810  0.50700686  0.92203730    -0.79400
O343        O  0.79312328  0.43242987  0.89582881    -0.77600
O344        O  0.84300666  0.51088405  0.89518458    -1.13700
O345        O  0.76377810  0.47745745  0.90746458    -0.72900
C346        C  0.75693046  0.48982228  0.88157620     0.97800
C347        C  0.92132062  0.59069405  0.88928439     0.94200
Al348      Al  0.88224101  0.50461846  0.88031569     1.55600
O349        O  0.81637228  0.55854557  0.92122294    -0.77500
C350        C  0.81605327  0.42211697  0.88393641     0.98400
C351        C  0.86135643  0.52774753  0.82297089     0.93300
O352        O  0.85696316  0.55289194  0.83892321    -0.82800
O353        O  0.48614885  0.22408666  0.14174534    -0.82300
C354        C  0.52436947  0.13215940  0.05899386     0.97100
O355        O  0.53647846  0.16884847  0.05725054    -0.71400
O356        O  0.48360649  0.18894230  0.05203515    -0.75000
Al357      Al  0.52665585  0.20442286  0.08074441     1.49000
C358        C  0.45540789  0.19456638  0.05793962     0.92300
O359        O  0.41803062  0.11870605  0.10928182    -0.81200
O360        O  0.50799866  0.14961560  0.16920640    -0.74800
Al361      Al  0.45368175  0.17130359  0.12490208     1.90100
O362        O  0.45267812  0.09231740  0.12764560    -0.73900
O363        O  0.56488534  0.16874449  0.12649364    -0.73700
O364        O  0.50843458  0.11280594  0.08431429    -0.79400
O365        O  0.57325063  0.22373740  0.10525160    -0.77600
O366        O  0.49620090  0.16983569  0.11045764    -1.13700
O367        O  0.52351610  0.24809393  0.09838715    -0.72900
C368        C  0.51151943  0.25330508  0.12520050     0.97800
C369        C  0.42093601  0.08867512  0.11606370     0.94200
Al370      Al  0.50745801  0.13387200  0.12576395     1.55600
O371        O  0.44341971  0.19228713  0.08642563    -0.77500
C372        C  0.58721775  0.20538510  0.11987440     0.98400
C373        C  0.47994404  0.15050906  0.18329106     0.93300
O374        O  0.45335964  0.15190335  0.16712492    -0.82800
O375        O  0.78408013  0.28693981  0.13925558    -0.82300
C376        C  0.88834799  0.41601316  0.05752835     0.97100
O377        O  0.85115210  0.39394325  0.05599375    -0.71400
O378        O  0.82446139  0.31788495  0.05016986    -0.75000
Al379      Al  0.81273860  0.34881597  0.07853452     1.49000
C380        C  0.81481698  0.28256573  0.05693292     0.92300
O381        O  0.88929816  0.31544805  0.11128434    -0.81200
O382        O  0.86828830  0.38363985  0.16739300    -0.74800
Al383      Al  0.83721062  0.30334503  0.12445430     1.90100
O384        O  0.92159771  0.37841198  0.12750292    -0.73900
O385        O  0.85516184  0.42427235  0.12316867    -0.73700
O386        O  0.90731010  0.41656237  0.08226087    -0.79400
O387        O  0.79707976  0.37911628  0.10340730    -0.77600
O388        O  0.84506355  0.34981050  0.10897023    -1.13700
O389        O  0.76648459  0.30342520  0.09429838    -0.72900
C390        C  0.75749307  0.28616131  0.12121849     0.97800
C391        C  0.92149251  0.34747353  0.11805786     0.94200
Al392      Al  0.88473479  0.39662820  0.12388267     1.55600
O393        O  0.81590462  0.27279672  0.08566905    -0.77500
C394        C  0.81871347  0.41184132  0.11779007     0.98400
C395        C  0.86191841  0.35268466  0.18213767     0.93300
O396        O  0.85549349  0.32201291  0.16686486    -0.82800
O397        O  0.29519867  0.46906294  0.83609657    -0.82300
C398        C  0.39281324  0.53928932  0.94543980     0.97100
O399        O  0.40471183  0.53547055  0.91818915    -0.71400
O400        O  0.36513402  0.46119455  0.89988330    -0.75000
Al401      Al  0.37584331  0.50858659  0.87981673     1.49000
C402        C  0.33656336  0.42676642  0.89354931     0.92300
O403        O  0.26679716  0.44276455  0.92450724    -0.81200
O404        O  0.29802040  0.54744516  0.88502950    -0.74800
Al405      Al  0.28337204  0.45792566  0.88063680     1.90100
O406        O  0.28200242  0.50281775  0.94025043    -0.73900
O407        O  0.37421446  0.58339709  0.89721550    -0.73700
O408        O  0.35826586  0.53352379  0.94902945    -0.79400
O409        O  0.39260393  0.55783908  0.85866959    -0.77600
O410        O  0.32909930  0.50178279  0.89203618    -1.13700
O411        O  0.35740440  0.48370751  0.83859475    -0.72900
C412        C  0.32708512  0.47652977  0.82226163     0.97800
C413        C  0.26448493  0.46559006  0.94493589     0.94200
Al414      Al  0.32814440  0.53874484  0.91587157     1.55600
O415        O  0.30446640  0.42192575  0.88152997    -0.77500
C416        C  0.39463827  0.58759795  0.87242724     0.98400
C417        C  0.26335578  0.52125478  0.87637205     0.93300
O418        O  0.25238060  0.48443082  0.87728298    -0.82800
O419        O  0.17190656  0.47775465  0.17051513    -0.82300
C420        C  0.13152428  0.53140244  0.05887189     0.97100
O421        O  0.11915905  0.53147692  0.08692740    -0.71400
O422        O  0.08797335  0.45933036  0.10929079    -0.75000
Al423      Al  0.12542208  0.50926598  0.12620031     1.49000
C424        C  0.08477328  0.42634161  0.11588427     0.92300
O425        O  0.17221219  0.44542287  0.08353454    -0.81200
O426        O  0.24265095  0.55557908  0.11471642    -0.74800
Al427      Al  0.17153240  0.46401330  0.12647457     1.90100
O428        O  0.21286803  0.50480085  0.06379626    -0.73900
O429        O  0.19724762  0.58436021  0.10156081    -0.73700
O430        O  0.16066120  0.52656659  0.05446956    -0.79400
O431        O  0.15957497  0.56074837  0.14444355    -0.77600
O432        O  0.16585520  0.50419675  0.11293786    -1.13700
O433        O  0.12217978  0.48833322  0.16823715    -0.72900
C434        C  0.14662678  0.48348368  0.18451103     0.97800
C435        C  0.19633089  0.46736538  0.06206293     0.94200
Al436      Al  0.20048504  0.53979689  0.08581362     1.55600
O437        O  0.11420597  0.42462692  0.12700054    -0.77500
C438        C  0.18484207  0.58988039  0.12798388     0.98400
C439        C  0.25405000  0.53364641  0.12709041     0.93300
O440        O  0.23021657  0.49599750  0.12892303    -0.82800
O441        O  0.16859668  0.70833869  0.83936085    -0.82300
C442        C  0.13165802  0.61151019  0.94959156     0.97100
O443        O  0.11769881  0.59909203  0.92173427    -0.71400
O444        O  0.08651315  0.63946103  0.89979579    -0.75000
Al445      Al  0.12360503  0.62747027  0.88260594     1.49000
C446        C  0.08420106  0.67001528  0.89469456     0.92300
O447        O  0.17327956  0.73894989  0.92761987    -0.81200
O448        O  0.24083965  0.70043385  0.89158866    -0.74800
Al449      Al  0.17041931  0.72053604  0.88394610     1.90100
O450        O  0.21493138  0.72112484  0.94448833    -0.73900
O451        O  0.19565635  0.62476732  0.90582892    -0.73700
O452        O  0.16182773  0.64579596  0.95393827    -0.79400
O453        O  0.15659178  0.60946643  0.86381201    -0.77600
O454        O  0.16469845  0.67383380  0.89594921    -1.13700
O455        O  0.12046949  0.64565394  0.84092780    -0.72900
C456        C  0.14358592  0.67656411  0.82509164     0.97800
C457        C  0.19854707  0.74144378  0.94794977     0.94200
Al458      Al  0.20032365  0.67318486  0.92177976     1.55600
O459        O  0.11400876  0.70219058  0.88476466    -0.77500
C460        C  0.18164631  0.60544047  0.88002055     0.98400
C461        C  0.25174456  0.73455006  0.88025563     0.93300
O462        O  0.22827977  0.74805621  0.88023907    -0.82800
O463        O  0.53401446  0.83811200  0.83565891    -0.82300
C464        C  0.47525184  0.86493562  0.95040021     1.01900
O465        O  0.47563356  0.88005897  0.92341962    -0.71400
O466        O  0.54739808  0.91690269  0.90032877    -0.75000
Al467      Al  0.49811492  0.87834147  0.88295073     1.49000
C468        C  0.58084053  0.92305537  0.89165323     0.92300
O469        O  0.56727312  0.83698872  0.92165560    -0.81200
O470        O  0.45950831  0.76129401  0.88662537    -0.74800
Al471      Al  0.54845005  0.83762548  0.87898114     1.90100
O472        O  0.50920522  0.78958848  0.93930304    -0.73900
O473        O  0.42534207  0.80044484  0.90378420    -0.73700
O474        O  0.48059964  0.83576609  0.95250110    -0.79400
O475        O  0.44699693  0.84408864  0.86454757    -0.77600
O476        O  0.50603359  0.83867647  0.89336756    -1.13700
O477        O  0.51870985  0.88477181  0.84021877    -0.72900
C478        C  0.52599438  0.86256387  0.82294522     0.97800
C479        C  0.54663998  0.81050283  0.94220472     0.94200
Al480      Al  0.47151287  0.79992857  0.91850936     1.55600
O481        O  0.58436002  0.89532992  0.87922685    -0.77500
C482        C  0.41876019  0.81548883  0.87937385     0.98400
C483        C  0.48413711  0.75342840  0.87439750     0.93300
O484        O  0.52120554  0.77928226  0.87475942    -0.82800
O485        O  0.30575238  0.84113494  0.17268469    -0.82300
C486        C  0.40095345  0.87090302  0.06296075     0.97100
O487        O  0.41377934  0.88727989  0.09007449    -0.71400
O488        O  0.37457235  0.92094991  0.10965256    -0.75000
Al489      Al  0.38599621  0.88440962  0.12898160     1.49000
C490        C  0.34522408  0.92483950  0.11564637     0.92300
O491        O  0.27637941  0.83775940  0.08491734    -0.81200
O492        O  0.30848856  0.76567916  0.12415269    -0.74800
Al493      Al  0.29349001  0.83973179  0.12852766     1.90100
O494        O  0.29051662  0.79272784  0.06907534    -0.73900
O495        O  0.38428516  0.80808422  0.11046093    -0.73700
O496        O  0.36640982  0.84096043  0.05969355    -0.79400
O497        O  0.40369492  0.85237504  0.14933397    -0.77600
O498        O  0.33906924  0.84303594  0.11692086    -1.13700
O499        O  0.36819991  0.88995416  0.17059820    -0.72900
C500        C  0.33734297  0.86685369  0.18668497     0.97800
C501        C  0.27296491  0.81195282  0.06469885     0.94200
Al502      Al  0.33752826  0.80494365  0.09287877     1.55600
O503        O  0.31371228  0.89646851  0.12770561    -0.77500
C504        C  0.40565066  0.82499376  0.13488916     0.98400
C505        C  0.27424044  0.75671952  0.13344934     0.93300
O506        O  0.26312631  0.78202808  0.13211059    -0.82800
O507        O  0.54274121  0.71498984  0.16954526    -0.82300
C508        C  0.47656975  0.62348616  0.05628729     0.97100
O509        O  0.47806202  0.60983964  0.08352004    -0.71400
O510        O  0.55032379  0.64473827  0.10695965    -0.75000
Al511      Al  0.50160996  0.63551440  0.12376486     1.49000
C512        C  0.58476111  0.67298240  0.11384566     0.92300
O513        O  0.57359988  0.74658315  0.08229733    -0.81200
O514        O  0.46787497  0.71628414  0.11785711    -0.74800
Al515      Al  0.55571063  0.72826419  0.12553009     1.90100
O516        O  0.51567251  0.73521155  0.06502097    -0.73900
O517        O  0.43046115  0.64153824  0.10203887    -0.73700
O518        O  0.48416543  0.65889012  0.05328731    -0.79400
O519        O  0.45065383  0.61956800  0.14186704    -0.77600
O520        O  0.51169826  0.68380319  0.11213215    -1.13700
O521        O  0.52251842  0.65109115  0.16647918    -0.72900
C522        C  0.53230859  0.68205188  0.18304096     0.97800
C523        C  0.55276387  0.75126075  0.06143711     0.94200
Al524      Al  0.47753316  0.68775230  0.08671296     1.55600
O525        O  0.59000709  0.70558428  0.12511325    -0.77500
C526        C  0.42297375  0.62010728  0.12673151     0.98400
C527        C  0.49355340  0.74932338  0.12980710     0.93300
O528        O  0.53032796  0.76035524  0.12946064    -0.82800
C529        C  0.47897960  0.77516602  0.14183848    -0.06000
C530        C  0.44186762  0.75659966  0.15743919    -0.33400
C531        C  0.41928688  0.77502267  0.15882857     0.35900
C532        C  0.43388905  0.81276720  0.14490143    -0.06300
C533        C  0.47281815  0.83336182  0.13254044    -0.33300
C534        C  0.49543114  0.81470284  0.13082446     0.35800
H535        H  0.42867665  0.72608992  0.16586593     0.16100
O536        O  0.38115408  0.75398912  0.17048971    -0.60800
H537        H  0.48407182  0.86223391  0.12124808     0.16100
O538        O  0.53134493  0.83352790  0.11511817    -0.60900
H539        H  0.52476683  0.82630422  0.09207782     0.43100
H540        H  0.38278424  0.76461924  0.19251192     0.43100
C541        C  0.56487251  0.80296895  0.97043246    -0.06000
C542        C  0.56198656  0.76572779  0.97309218    -0.33400
C543        C  0.56513062  0.75129435  0.00314694     0.35900
C544        C  0.56956298  0.77341502  0.03123873    -0.06300
C545        C  0.57652037  0.81238017  0.02826189    -0.33300
C546        C  0.57506738  0.82754166  0.99789428     0.35800
H547        H  0.55410750  0.74645166  0.95221983     0.16100
O548        O  0.55846917  0.71326828  0.00528465    -0.60800
H549        H  0.57940605  0.82960436  0.04966532     0.16100
O550        O  0.57876040  0.86437507  0.99585956    -0.60900
H551        H  0.60754870  0.88334163  0.99216247     0.43100
H552        H  0.58523461  0.71665681  0.00805556     0.43100
C553        C  0.42752426  0.88332319  0.03532155    -0.06000
C554        C  0.46188153  0.88075326  0.03757313    -0.33400
C555        C  0.48002841  0.87774021  0.00966943     0.35900
C556        C  0.46435639  0.87859602  0.97934438    -0.06300
C557        C  0.43310578  0.88632467  0.97728149    -0.33300
C558        C  0.41436094  0.88826909  0.00515795     0.35800
H559        H  0.47219671  0.87697391  0.06081200     0.16100
O560        O  0.51182293  0.87215211  0.01221450    -0.60800
H561        H  0.42083555  0.88716567  0.95406300     0.16100
O562        O  0.38112064  0.89147028  0.00261348    -0.60900
H563        H  0.39037387  0.91971333  0.00798372     0.43100
H564        H  0.50018723  0.84355481  0.01779651     0.43100
C565        C  0.21111688  0.76847264  0.97604390    -0.06000
C566        C  0.19017223  0.75444064  0.00509977    -0.33400
C567        C  0.20879772  0.77162973  0.03463470     0.35900
C568        C  0.24876740  0.80322981  0.03524290    -0.06300
C569        C  0.26845060  0.81939414  0.00610893    -0.33300
C570        C  0.25001819  0.80208030  0.97667182     0.35800
H571        H  0.16076000  0.72781283  0.00512072     0.16100
O572        O  0.18925966  0.75446914  0.06279506    -0.60800
H573        H  0.29942982  0.84319108  0.00627629     0.16100
O574        O  0.27152751  0.81593278  0.94877192    -0.60900
H575        H  0.28715832  0.80242775  0.94729924     0.43100
H576        H  0.17993337  0.77220465  0.07089161     0.43100
C577        C  0.29357314  0.75893610  0.86952506    -0.06000
C578        C  0.31327696  0.73872350  0.86093113    -0.33400
C579        C  0.35466979  0.75830447  0.86075836     0.35900
C580        C  0.37724880  0.79884132  0.86906342    -0.06300
C581        C  0.35800254  0.82052124  0.87376171    -0.33300
C582        C  0.31612064  0.80078377  0.87366075     0.35800
H583        H  0.29656287  0.70683758  0.85689059     0.16100
O584        O  0.37279421  0.73676763  0.85510258    -0.60800
H585        H  0.37522976  0.85192496  0.88012224     0.16100
O586        O  0.29789339  0.82186107  0.88102580    -0.60900
H587        H  0.29463754  0.83212003  0.86011169     0.43100
H588        H  0.37474327  0.73618665  0.83132359     0.43100
C589        C  0.11579047  0.54236730  0.03133951    -0.06000
C590        C  0.11087539  0.57538097  0.03444958    -0.33400
C591        C  0.11257392  0.59716677  0.00723978     0.35900
C592        C  0.11643707  0.58404811  0.97670261    -0.06300
C593        C  0.11439043  0.54728984  0.97339050    -0.33300
C594        C  0.11473279  0.52669099  0.00063483     0.35800
H595        H  0.11021758  0.58681193  0.05802103     0.16100
O596        O  0.11302353  0.63240568  0.01075027    -0.60800
H597        H  0.11709837  0.53685034  0.94987394     0.16100
O598        O  0.11794057  0.49351943  0.99704727    -0.60900
H599        H  0.09012330  0.47060821  0.99708384     0.43100
H600        H  0.14070750  0.65246382  0.01724739     0.43100
C601        C  0.20043300  0.63111005  0.13868099    -0.06000
C602        C  0.23579410  0.65004064  0.15663903    -0.33400
C603        C  0.25876470  0.69176088  0.15802734     0.35900
C604        C  0.24585164  0.71484485  0.14181842    -0.06300
C605        C  0.20810725  0.69574281  0.12725721    -0.33300
C606        C  0.18580147  0.65400802  0.12494318     0.35800
H607        H  0.24710430  0.63254758  0.16743910     0.16100
O608        O  0.29519854  0.70962790  0.17304067    -0.60800
H609        H  0.19784222  0.71309058  0.11458903     0.16100
O610        O  0.15135600  0.63598188  0.10708201    -0.60900
H611        H  0.16006976  0.64338872  0.08444836     0.43100
H612        H  0.29098442  0.71867541  0.19420547     0.43100
C613        C  0.38103528  0.59603048  0.13694050    -0.06000
C614        C  0.36029164  0.61590858  0.14216455    -0.33400
C615        C  0.31868418  0.59498561  0.14249491     0.35900
C616        C  0.29677248  0.55328245  0.13676324    -0.06300
C617        C  0.31765543  0.53276870  0.13483539    -0.33300
C618        C  0.35968254  0.55395669  0.13521171     0.35800
H619        H  0.37642167  0.64824092  0.14404932     0.16100
O620        O  0.29965941  0.61595479  0.14708991    -0.60800
H621        H  0.30161356  0.50080830  0.13060078     0.16100
O622        O  0.37937660  0.53368096  0.13058729    -0.60900
H623        H  0.38923929  0.53206142  0.15222169     0.43100
H624        H  0.30293921  0.63046706  0.12664564     0.43100
C625        C  0.24318407  0.45073122  0.97576364    -0.06000
C626        C  0.20193883  0.43544093  0.97764569    -0.33400
C627        C  0.18431066  0.43549040  0.00727960     0.35900
C628        C  0.20823736  0.45115719  0.03506205    -0.06300
C629        C  0.24849442  0.46253718  0.03352157    -0.33300
C630        C  0.26584727  0.46218719  0.00428173     0.35800
H631        H  0.18414261  0.42690729  0.95583136     0.16100
O632        O  0.14458140  0.42328727  0.00840860    -0.60800
H633        H  0.26742893  0.47523828  0.05456446     0.16100
O634        O  0.30612673  0.47749959  0.00321147    -0.60900
H635        H  0.30924654  0.45394015  0.00086922     0.43100
H636        H  0.14182906  0.44317555  0.99564730     0.43100
C637        C  0.42041566  0.55466320  0.97280501    -0.06000
C638        C  0.40713075  0.53771035  0.00324825    -0.33400
C639        C  0.42740911  0.55858647  0.03096510     0.35900
C640        C  0.46163405  0.59687392  0.02820375    -0.06300
C641        C  0.47701274  0.61202746  0.99762491    -0.33300
C642        C  0.45688288  0.59089044  0.96993887     0.35800
H643        H  0.37971192  0.50937345  0.00563451     0.16100
O644        O  0.41134018  0.54304955  0.06051387    -0.60800
H645        H  0.50332695  0.64132736  0.99515898     0.16100
O646        O  0.47065124  0.60808501  0.94041140    -0.60900
H647        H  0.48864645  0.59863407  0.93333626     0.43100
H648        H  0.39228026  0.55215123  0.06481226     0.43100
C649        C  0.42209970  0.62830735  0.86107457    -0.06000
C650        C  0.46226767  0.64764411  0.87055700    -0.33400
C651        C  0.48533915  0.68959386  0.87163907     0.35900
C652        C  0.46820174  0.71222371  0.86237942    -0.06300
C653        C  0.42996723  0.69248480  0.84844689    -0.33300
C654        C  0.40667425  0.65082643  0.84822048     0.35800
H655        H  0.47449681  0.63037999  0.88018675     0.16100
O656        O  0.52280289  0.70786379  0.88492978    -0.60800
H657        H  0.41686184  0.70948437  0.84033350     0.16100
O658        O  0.36757864  0.63258959  0.83856466    -0.60900
H659        H  0.36716957  0.62294638  0.81638723     0.43100
H660        H  0.51849581  0.70347677  0.90842455     0.43100
C661        C  0.23519316  0.53479664  0.86861081    -0.06000
C662        C  0.24861754  0.56949752  0.85008734    -0.33400
C663        C  0.22865183  0.59093139  0.85081699     0.35900
C664        C  0.19475547  0.57757877  0.87023311    -0.06300
C665        C  0.17946089  0.54114347  0.88664545    -0.33300
C666        C  0.19916402  0.51952033  0.88567040     0.35800
H667        H  0.27633555  0.58163877  0.83689332     0.16100
O668        O  0.24369143  0.62615629  0.83415078    -0.60800
H669        H  0.15383194  0.53095706  0.90219763     0.16100
O670        O  0.18578142  0.48641812  0.90478374    -0.60900
H671        H  0.16845469  0.46343052  0.89059146     0.43100
H672        H  0.27198658  0.64275665  0.84079719     0.43100
C673        C  0.96057474  0.35081327  0.11469779    -0.06000
C674        C  0.98077174  0.36482256  0.08541421    -0.33400
C675        C  0.02249026  0.38488602  0.08445015     0.35900
C676        C  0.04445884  0.39081876  0.11302780    -0.06300
C677        C  0.02400017  0.37211989  0.14139826    -0.33300
C678        C  0.98223172  0.35273899  0.14247940     0.35800
H679        H  0.96455810  0.36428724  0.06402007     0.16100
O680        O  0.04161885  0.40318442  0.05640436    -0.60800
H681        H  0.04042649  0.37699085  0.16366098     0.16100
O682        O  0.96314501  0.33939041  0.17145555    -0.60900
H683        H  0.96448102  0.36305629  0.18173176     0.43100
H684        H  0.05234450  0.38677543  0.04798149     0.43100
C685        C  0.35024112  0.96447670  0.11090976    -0.06000
C686        C  0.36990436  0.98598736  0.08314578    -0.33400
C687        C  0.38862407  0.02764003  0.08276408     0.35900
C688        C  0.38782535  0.04798986  0.11041820    -0.06300
C689        C  0.36409571  0.02625324  0.13663979    -0.33300
C690        C  0.34504593  0.98448380  0.13695978     0.35800
H691        H  0.37392135  0.97083286  0.06289563     0.16100
O692        O  0.41099311  0.04847259  0.05657888    -0.60800
H693        H  0.36384580  0.04179361  0.15821669     0.16100
O694        O  0.32566555  0.96410380  0.16430614    -0.60900
H695        H  0.34643208  0.96385678  0.17790933     0.43100
H696        H  0.43664461  0.04927392  0.05899093     0.43100
C697        C  0.63074459  0.22725883  0.12736812    -0.06000
C698        C  0.64988926  0.20691400  0.13812000    -0.33400
C699        C  0.69189338  0.22648950  0.13956710     0.35900
C700        C  0.71501622  0.26672288  0.13011363    -0.06300
C701        C  0.69579921  0.28747719  0.12197341    -0.33300
C702        C  0.65453614  0.26848322  0.12043833     0.35800
H703        H  0.63246248  0.17532433  0.14361401     0.16100
O704        O  0.70976071  0.20509996  0.14708947    -0.60800
H705        H  0.71303281  0.31823659  0.11408414     0.16100
O706        O  0.63811677  0.29043455  0.11036776    -0.60900
H707        H  0.64061148  0.29163818  0.08656524     0.43100
H708        H  0.71771830  0.21140455  0.17001708     0.43100
C709        C  0.96099857  0.62559516  0.89530970    -0.06000
C710        C  0.98367418  0.64809997  0.86888918    -0.33400
C711        C  0.02542023  0.66862904  0.87013942     0.35900
C712        C  0.04462002  0.66556304  0.89775227    -0.06300
C713        C  0.02203738  0.64703491  0.92538323    -0.33300
C714        C  0.98036327  0.62732663  0.92434477     0.35800
H715        H  0.96905372  0.64626796  0.84620356     0.16100
O716        O  0.04666604  0.68608734  0.84266383    -0.60800
H717        H  0.03647136  0.64439799  0.94676713     0.16100
O718        O  0.95873255  0.60584331  0.95058107    -0.60900
H719        H  0.95823822  0.58019042  0.94940024     0.43100
H720        H  0.05794954  0.71516948  0.84580411     0.43100
C721        C  0.90361954  0.47728266  0.97214501    -0.06000
C722        C  0.90492877  0.44204162  0.97131820    -0.33400
C723        C  0.90666698  0.42413257  0.00000288     0.35900
C724        C  0.90778809  0.44198771  0.02978300    -0.06300
C725        C  0.91191489  0.47988939  0.03023307    -0.33300
C726        C  0.90950797  0.49747995  0.00155990     0.35800
H727        H  0.89996430  0.42603644  0.94879756     0.16100
O728        O  0.90259787  0.38701299  0.99895865    -0.60800
H729        H  0.91164035  0.49337197  0.05300441     0.16100
O730        O  0.90732861  0.53144855  0.00295183    -0.60900
H731        H  0.93500748  0.55347626  0.00714191     0.43100
H732        H  0.87361825  0.36783826  0.99623887     0.43100
C733        C  0.61433498  0.96456513  0.89304395    -0.06000
C734        C  0.62986850  0.98464684  0.86388491    -0.33400
C735        C  0.64810571  0.02632423  0.86243391     0.35900
C736        C  0.65221366  0.04831484  0.89056560    -0.06300
C737        C  0.64094946  0.02864554  0.92027342    -0.33300
C738        C  0.62179175  0.98689832  0.92161490     0.35800
H739        H  0.62367324  0.96782444  0.84165646     0.16100
O740        O  0.65887299  0.04503041  0.83308705    -0.60800
H741        H  0.64329357  0.04522484  0.94196551     0.16100
O742        O  0.60649815  0.96796930  0.95038104    -0.60900
H743        H  0.62487303  0.95909696  0.95773538     0.43100
H744        H  0.63450042  0.04364723  0.82448964     0.43100
C745        C  0.56223718  0.10884865  0.97124276    -0.06000
C746        C  0.52906732  0.11356646  0.97170401    -0.33400
C747        C  0.51261596  0.11568398  0.00093508     0.35900
C748        C  0.52938819  0.11312704  0.03019600    -0.06300
C749        C  0.55904227  0.10302423  0.02969989    -0.33300
C750        C  0.57564780  0.10100537  0.00027205     0.35800
H751        H  0.51894103  0.12038541  0.94961579     0.16100
O752        O  0.48350500  0.12536900  0.00075999    -0.60800
H753        H  0.57235043  0.10116767  0.05205084     0.16100
O754        O  0.60769045  0.09563290  0.00033309    -0.60900
H755        H  0.63144728  0.12280246  0.00258548     0.43100
H756        H  0.45811795  0.09957742  0.00324404     0.43100
C757        C  0.79489525  0.25128920  0.03232955    -0.06000
C758        C  0.81243972  0.25488563  0.00219992    -0.33400
C759        C  0.78945244  0.23093172  0.97630642     0.35900
C760        C  0.74786706  0.20528193  0.98000051    -0.06300
C761        C  0.73151172  0.19891260  0.01096202    -0.33300
C762        C  0.75474977  0.22145828  0.03707438     0.35800
H763        H  0.84343050  0.27749679  0.99839743     0.16100
O764        O  0.80724595  0.23575618  0.94692178    -0.60800
H765        H  0.69986533  0.17874765  0.01454813     0.16100
O766        O  0.73692999  0.21689301  0.06647409    -0.60900
H767        H  0.72087130  0.22987545  0.06432992     0.43100
H768        H  0.81301157  0.21383201  0.94543766     0.43100
C769        C  0.75814924  0.29570963  0.87791015    -0.06000
C770        C  0.74647591  0.31600602  0.85692959    -0.33400
C771        C  0.76728892  0.35787700  0.85657302     0.35900
C772        C  0.80014128  0.37962072  0.87727597    -0.06300
C773        C  0.81354317  0.35930062  0.89636216    -0.33300
C774        C  0.79228576  0.31758380  0.89724563     0.35800
H775        H  0.71962915  0.29945544  0.84255840     0.16100
O776        O  0.75402900  0.37717355  0.83725681    -0.60800
H777        H  0.83843135  0.37575332  0.91273556     0.16100
O778        O  0.80338864  0.29847574  0.91879634    -0.60900
H779        H  0.79090570  0.29884035  0.93945575     0.43100
H780        H  0.77343948  0.38844223  0.81935490     0.43100
C781        C  0.34399412  0.39350492  0.89780801    -0.06000
C782        C  0.36667863  0.39481508  0.92462085    -0.33400
C783        C  0.38857135  0.37556597  0.92395672     0.35900
C784        C  0.38799858  0.35461543  0.89620412    -0.06300
C785        C  0.36197194  0.34949923  0.87084301    -0.33300
C786        C  0.33972463  0.36859805  0.87160134     0.35800
H787        H  0.37060882  0.41414143  0.94484361     0.16100
O788        O  0.41440752  0.38180249  0.94877634    -0.60800
H789        H  0.36172504  0.33383472  0.84918788     0.16100
O790        O  0.31770563  0.36649789  0.84509951    -0.60900
H791        H  0.33661089  0.38834690  0.83072145     0.43100
H792        H  0.40180054  0.35634276  0.96092575     0.43100
C793        C  0.44173162  0.21041982  0.03211767    -0.06000
C794        C  0.44548755  0.24781725  0.03700951    -0.33400
C795        C  0.44884631  0.27175833  0.01069420     0.35900
C796        C  0.44677756  0.25751649  0.97913883    -0.06300
C797        C  0.43764904  0.21800340  0.97449644    -0.33300
C798        C  0.43562481  0.19464517  0.00076456     0.35800
H799        H  0.45035977  0.26037587  0.06105835     0.16100
O800        O  0.45639058  0.30979450  0.01597117    -0.60800
H801        H  0.43608469  0.20660412  0.95038154     0.16100
O802        O  0.43132962  0.15793911  0.99536494    -0.60900
H803        H  0.40274158  0.13839041  0.99922176     0.43100
H804        H  0.48498890  0.32580693  0.02196364     0.43100
C805        C  0.63099385  0.42965728  0.87365898    -0.06000
C806        C  0.65123220  0.40907691  0.86849092    -0.33400
C807        C  0.69273758  0.42935992  0.86787605     0.35900
C808        C  0.71499409  0.47108394  0.87151077    -0.06300
C809        C  0.69502478  0.49237599  0.87335907    -0.33300
C810        C  0.65309963  0.47189431  0.87431209     0.35800
H811        H  0.63497650  0.37674317  0.86726285     0.16100
O812        O  0.71149309  0.40785944  0.86584578    -0.60800
H813        H  0.71186766  0.52448710  0.87681520     0.16100
O814        O  0.63451517  0.49319729  0.87922685    -0.60900
H815        H  0.62731946  0.49777293  0.85740365     0.43100
H816        H  0.70947196  0.39663043  0.88765525     0.43100
C817        C  0.53169429  0.25377166  0.87343280    -0.06000
C818        C  0.57174584  0.27401558  0.86393309    -0.33400
C819        C  0.59402014  0.25512881  0.86486296     0.35900
C820        C  0.57609438  0.21512643  0.87509611    -0.06300
C821        C  0.53496702  0.19374147  0.88171256    -0.33300
C822        C  0.51281564  0.21294622  0.88115267     0.35800
H823        H  0.58659908  0.30550350  0.85806617     0.16100
O824        O  0.63362640  0.27637410  0.85670485    -0.60800
H825        H  0.52070470  0.16304223  0.88984823     0.16100
O826        O  0.47401059  0.19278734  0.89142600    -0.60900
H827        H  0.45795929  0.17935760  0.87192249     0.43100
H828        H  0.64754417  0.29338511  0.87569611     0.43100
C829        C  0.61795321  0.66526803  0.11081138    -0.06000
C830        C  0.61994058  0.64562357  0.08311386    -0.33400
C831        C  0.64105662  0.62546781  0.08338799     0.35900
C832        C  0.65983319  0.62399247  0.11184025    -0.06300
C833        C  0.66122777  0.64690111  0.13849639    -0.33300
C834        C  0.64074622  0.66781485  0.13802913     0.35800
H835        H  0.60232515  0.64310030  0.06207185     0.16100
O836        O  0.63866775  0.60290978  0.05715530    -0.60800
H837        H  0.67489591  0.64538994  0.16076692     0.16100
O838        O  0.63948463  0.68672399  0.16550137    -0.60900
H839        H  0.61593852  0.66626473  0.17758325     0.43100
H840        H  0.66332392  0.62004429  0.04474246     0.43100
C841        C  0.75157822  0.55549088  0.02820906    -0.06000
C842        C  0.78920112  0.56004830  0.03335942    -0.33400
C843        C  0.81198807  0.56011946  0.00745691     0.35900
C844        C  0.79793519  0.55729098  0.97581037    -0.06300
C845        C  0.76249035  0.55743238  0.97050607    -0.33300
C846        C  0.73880262  0.55553972  0.99652038     0.35800
H847        H  0.79928827  0.55976776  0.05757969     0.16100
O848        O  0.84624847  0.55960258  0.01340325    -0.60800
H849        H  0.75115091  0.55495671  0.94623712     0.16100
O850        O  0.70254857  0.55203734  0.99079659    -0.60900
H851        H  0.68425682  0.52354813  0.98507648     0.43100
H852        H  0.86807908  0.58792043  0.01205421     0.43100
C853        C  0.53618974  0.44068954  0.97391497    -0.06000
C854        C  0.51530427  0.42241874  0.00221533    -0.33400
C855        C  0.53165733  0.43898997  0.03231619     0.35900
C856        C  0.56928384  0.47412070  0.03416120    -0.06300
C857        C  0.58776836  0.49487058  0.00583369    -0.33300
C858        C  0.57149854  0.47818827  0.97570051     0.35800
H859        H  0.48849522  0.39314142  0.00108932     0.16100
O860        O  0.51336678  0.41785415  0.05963232    -0.60800
H861        H  0.61705832  0.52163150  0.00698792     0.16100
O862        O  0.59251893  0.49644482  0.94829886    -0.60900
H863        H  0.61160709  0.48704236  0.94567123     0.43100
H864        H  0.49583003  0.42788029  0.06663564     0.43100
C865        C  0.52912353  0.29460816  0.13657889    -0.06000
C866        C  0.51057525  0.31629855  0.12923605    -0.33400
C867        C  0.53265398  0.35825194  0.12930593     0.35900
C868        C  0.57409216  0.37861238  0.13535019    -0.06300
C869        C  0.59147746  0.35670641  0.14566848    -0.33300
C870        C  0.56904138  0.31501609  0.14686868     0.35800
H871        H  0.47986639  0.30080908  0.12104370     0.16100
O872        O  0.51443505  0.37870276  0.11989012    -0.60800
H873        H  0.62309157  0.37183755  0.15105340     0.16100
O874        O  0.58737279  0.29430183  0.15520691    -0.60900
H875        H  0.57803100  0.28441525  0.17731758     0.43100
H876        H  0.50294961  0.38255506  0.13987659     0.43100
C877        C  0.75784531  0.47622566  0.13124833    -0.06000
C878        C  0.74070853  0.43666359  0.14187202    -0.33400
C879        C  0.76204936  0.41679755  0.14054958     0.35900
C880        C  0.80061784  0.43580528  0.12720981    -0.06300
C881        C  0.81904557  0.47643263  0.11899932    -0.33300
C882        C  0.79793066  0.49670786  0.12112121     0.35800
H883        H  0.70988515  0.42041240  0.14962203     0.16100
O884        O  0.74422394  0.37808241  0.15105224    -0.60800
H885        H  0.84874492  0.49164235  0.10881451     0.16100
O886        O  0.81546000  0.53528021  0.11031779    -0.60900
H887        H  0.82330678  0.55202639  0.13003836     0.43100
H888        H  0.75480852  0.37982946  0.17310819     0.43100
C889        C  0.66893438  0.15107058  0.71982284    -0.06000
C890        C  0.63206974  0.13850023  0.73459767    -0.33400
C891        C  0.62879348  0.13882935  0.76807571     0.35900
C892        C  0.66268211  0.15120176  0.78769322    -0.06300
C893        C  0.69955364  0.16330799  0.77287463    -0.33300
C894        C  0.70287168  0.16344311  0.73929106     0.35800
H895        H  0.60561227  0.12913184  0.72009145     0.16100
O896        O  0.59206796  0.12621373  0.78125025    -0.60800
H897        H  0.72608996  0.17298640  0.78734084     0.16100
O898        O  0.73939056  0.17564305  0.72586473    -0.60900
H899        H  0.73924350  0.15066065  0.72096300     0.43100
H900        H  0.58939902  0.15017788  0.78145444     0.43100
C901        C  0.85889062  0.34632719  0.28557371    -0.06000
C902        C  0.88466807  0.38276292  0.27003827    -0.33400
C903        C  0.88609339  0.38542328  0.23639510     0.35900
C904        C  0.86144594  0.35137590  0.21763102    -0.06300
C905        C  0.83634249  0.31485783  0.23301963    -0.33300
C906        C  0.83489227  0.31208754  0.26657790     0.35800
H907        H  0.90366227  0.40949144  0.28396544     0.16100
O908        O  0.91201348  0.42128885  0.22216370    -0.60800
H909        H  0.81729417  0.28827297  0.21893120     0.16100
O910        O  0.80947694  0.27578024  0.28040747    -0.60900
H911        H  0.82487708  0.26206242  0.28177139     0.43100
H912        H  0.93696142  0.42089704  0.21891183     0.43100
C913        C  0.75467970  0.21668121  0.53097151    -0.06000
C914        C  0.79493780  0.24727177  0.52948758    -0.33400
C915        C  0.81242629  0.26537103  0.49992094     0.35900
C916        C  0.78940703  0.25329007  0.47148599    -0.06300
C917        C  0.75013805  0.22080038  0.47269166    -0.33300
C918        C  0.73278903  0.20255021  0.50210959     0.35800
H919        H  0.81185036  0.25933815  0.55154538     0.16100
O920        O  0.85052680  0.29771187  0.49965193    -0.60800
H921        H  0.73181991  0.21163405  0.45113270     0.16100
O922        O  0.69335124  0.17299418  0.50280320    -0.60900
H923        H  0.67830795  0.18708460  0.50121266     0.43100
H924        H  0.86745095  0.28700888  0.49252513     0.43100
C925        C  0.86335307  0.53508987  0.71949593    -0.06000
C926        C  0.87652077  0.51192071  0.73500779    -0.33400
C927        C  0.87602945  0.50907851  0.76857948     0.35900
C928        C  0.86233373  0.52982457  0.78735480    -0.06300
C929        C  0.84962231  0.55335951  0.77173033    -0.33300
C930        C  0.85000639  0.55603984  0.73816372     0.35800
H931        H  0.88659451  0.49528910  0.72102067     0.16100
O932        O  0.88876544  0.48572564  0.78262182    -0.60800
H933        H  0.83903840  0.56964438  0.78555404     0.16100
O934        O  0.83741615  0.57938446  0.72391802    -0.60900
H935        H  0.86208190  0.60540448  0.71988845     0.43100
H936        H  0.91788721  0.50367728  0.78578175     0.43100
C937        C  0.89099624  0.46747566  0.53481874    -0.06000
C938        C  0.90053669  0.48979453  0.50638879    -0.33400
C939        C  0.90111993  0.47255661  0.47706677     0.35900
C940        C  0.89065969  0.43225124  0.47631064    -0.06300
C941        C  0.88682547  0.41210770  0.50522558    -0.33300
C942        C  0.88685332  0.42952432  0.53451669     0.35800
H943        H  0.90398196  0.51919883  0.50657537     0.16100
O944        O  0.90607584  0.49328780  0.44915058    -0.60800
H945        H  0.87931761  0.38120255  0.50488850     0.16100
O946        O  0.87746808  0.40719152  0.56205769    -0.60900
H947        H  0.84791725  0.39069701  0.56224433     0.43100
H948        H  0.93455302  0.50495470  0.44348458     0.43100
C949        C  0.80921405  0.38603643  0.64683498    -0.06000
C950        C  0.77148278  0.36671945  0.66082654    -0.33400
C951        C  0.74834293  0.32510905  0.66071702     0.35900
C952        C  0.76280266  0.30255671  0.64585863    -0.06300
C953        C  0.80302324  0.32181123  0.63668760    -0.33300
C954        C  0.82642190  0.36361643  0.63740976     0.35800
H955        H  0.75878927  0.38396644  0.66937647     0.16100
O956        O  0.71037336  0.30695908  0.67255392    -0.60800
H957        H  0.81511861  0.30491816  0.62600684     0.16100
O958        O  0.86453527  0.38224539  0.62572017    -0.60900
H959        H  0.88192081  0.39038783  0.64506412     0.43100
H960        H  0.71289641  0.30197451  0.69560146     0.43100
C961        C  0.47218668  0.15085188  0.28693305    -0.06000
C962        C  0.49366356  0.13537311  0.27187719    -0.33400
C963        C  0.49680894  0.13529144  0.23827103     0.35900
C964        C  0.47765250  0.15015063  0.21892688    -0.06300
C965        C  0.45565219  0.16499947  0.23394285    -0.33300
C966        C  0.45295621  0.16561482  0.26749627     0.35800
H967        H  0.50876615  0.12388075  0.28620183     0.16100
O968        O  0.51780789  0.11964103  0.22465281    -0.60800
H969        H  0.44079269  0.17675537  0.21960797     0.16100
O970        O  0.43165980  0.18105639  0.28091226    -0.60900
H971        H  0.40413833  0.15796938  0.28319833     0.43100
H972        H  0.54590198  0.14202232  0.22426396     0.43100
C973        C  0.53638192  0.13705529  0.47914706    -0.06000
C974        C  0.52520032  0.14453540  0.50920524    -0.33400
C975        C  0.54536519  0.14504880  0.53704956     0.35900
C976        C  0.57745002  0.13860204  0.53491454    -0.06300
C977        C  0.58608582  0.12709179  0.50555664    -0.33300
C978        C  0.56504536  0.12536254  0.47771326     0.35800
H979        H  0.50279554  0.15296864  0.51085495     0.16100
O980        O  0.53664935  0.15652952  0.56558879    -0.60800
H981        H  0.61042051  0.12144206  0.50394339     0.16100
O982        O  0.57569317  0.11637099  0.44890938    -0.60900
H983        H  0.55709013  0.08726143  0.44588742     0.43100
H984        H  0.51173886  0.13269941  0.57312509     0.43100
C985        C  0.62214116  0.22155643  0.36993771    -0.06000
C986        C  0.64211603  0.26247910  0.36332574    -0.33400
C987        C  0.68361841  0.28478988  0.36208128     0.35900
C988        C  0.70592601  0.26624602  0.36824923    -0.06300
C989        C  0.68569748  0.22451619  0.37201362    -0.33300
C990        C  0.64390721  0.20217057  0.37318397     0.35800
H991        H  0.62553819  0.27767460  0.36111228     0.16100
O992        O  0.70203711  0.32523472  0.35725659    -0.60800
H993        H  0.70217982  0.20967714  0.37693005     0.16100
O994        O  0.62484123  0.16222443  0.38036335    -0.60900
H995        H  0.62786873  0.16107369  0.40398898     0.43100
H996        H  0.70566410  0.32873526  0.33362888     0.43100
C997        C  0.47672674  0.34159116  0.72027199    -0.06000
C998        C  0.45847694  0.30624060  0.73842813    -0.33400
C999        C  0.45939260  0.30743549  0.77209268     0.35900
C1000       C  0.47935359  0.34448939  0.78837388    -0.06300
C1001       C  0.49778773  0.37984966  0.77028958    -0.33300
C1002       C  0.49636425  0.37869887  0.73662361     0.35800
H1003       H  0.44344553  0.27738111  0.72652702     0.16100
O1004       O  0.44208652  0.27209914  0.78874734    -0.60800
H1005       H  0.51328757  0.40865199  0.78227668     0.16100
O1006       O  0.51557226  0.41409001  0.72006589    -0.60900
H1007       H  0.49595650  0.42295475  0.71845631     0.43100
H1008       H  0.41349697  0.26360383  0.79041015     0.43100
C1009       C  0.43757788  0.24631548  0.53305357    -0.06000
C1010       C  0.44164647  0.26802564  0.50501409    -0.33400
C1011       C  0.44119502  0.25211431  0.47463438     0.35900
C1012       C  0.43576910  0.21361277  0.47190483    -0.06300
C1013       C  0.42739489  0.19024948  0.49975519    -0.33300
C1014       C  0.42842462  0.20645576  0.53027109     0.35800
H1015       H  0.44948455  0.29896908  0.50680474     0.16100
O1016       O  0.45008797  0.27589123  0.44794568    -0.60800
H1017       H  0.42444660  0.16109683  0.49819571     0.16100
O1018       O  0.42533080  0.18484285  0.55726081    -0.60900
H1019       H  0.39908077  0.17713340  0.56671281     0.43100
H1020       H  0.47957778  0.29303869  0.44784631     0.43100
C1021       C  0.62728509  0.42328661  0.63889484    -0.06000
C1022       C  0.64673831  0.40212610  0.64404063    -0.33400
C1023       C  0.68822497  0.42167504  0.64431710     0.35900
C1024       C  0.71124444  0.46312108  0.63810791    -0.06300
C1025       C  0.69180480  0.48505656  0.63651349    -0.33300
C1026       C  0.64981871  0.46525436  0.63690879     0.35800
H1027       H  0.62963830  0.36981699  0.64589195     0.16100
O1028       O  0.70586326  0.39935583  0.64839492    -0.60800
H1029       H  0.70883201  0.51700288  0.63238614     0.16100
O1030       O  0.63106077  0.48663940  0.63322237    -0.60900
H1031       H  0.63906156  0.49927451  0.61171543     0.43100
H1032       H  0.70359439  0.39333241  0.67174427     0.43100
C1033       C  0.53093632  0.24669667  0.64380508    -0.06000
C1034       C  0.56921202  0.26604039  0.65763153    -0.33400
C1035       C  0.59137196  0.24718846  0.65907978     0.35900
C1036       C  0.57540946  0.20831869  0.64692358    -0.06300
C1037       C  0.53518496  0.18685946  0.63743544    -0.33300
C1038       C  0.51294659  0.20598879  0.63543785     0.35800
H1039       H  0.58339655  0.29719207  0.66466971     0.16100
O1040       O  0.63006694  0.26844248  0.66948676    -0.60800
H1041       H  0.52229807  0.15660091  0.62849841     0.16100
O1042       O  0.47553477  0.18603672  0.62205171    -0.60900
H1043       H  0.47995856  0.18757901  0.59846271     0.43100
H1044       H  0.62947367  0.25914859  0.69182149     0.43100
C1045       C  0.66626219  0.53383175  0.21930382    -0.06000
C1046       C  0.70346292  0.55224656  0.23492023    -0.33400
C1047       C  0.70626003  0.55560596  0.26853064     0.35900
C1048       C  0.67143890  0.54104575  0.28730352    -0.06300
C1049       C  0.63432846  0.52382756  0.27151477    -0.33300
C1050       C  0.63154378  0.52011694  0.23795927     0.35800
H1051       H  0.73058221  0.56333945  0.22107173     0.16100
O1052       O  0.74325778  0.57323913  0.28264200    -0.60800
H1053       H  0.60706188  0.51230064  0.28522899     0.16100
O1054       O  0.59462388  0.50289981  0.22374974    -0.60900
H1055       H  0.59077828  0.52549035  0.21843090     0.43100
H1056       H  0.74924859  0.55152227  0.28489522     0.43100
C1057       C  0.76492340  0.55835162  0.47171778    -0.06000
C1058       C  0.79530293  0.54921061  0.47166209    -0.33400
C1059       C  0.81392910  0.54874446  0.50032420     0.35900
C1060       C  0.80198387  0.55700012  0.52982881    -0.06300
C1061       C  0.77411178  0.56958435  0.52969474    -0.33300
C1062       C  0.75567359  0.57047489  0.50076101     0.35800
H1063       H  0.80243315  0.53933749  0.44961443     0.16100
O1064       O  0.84095714  0.53625752  0.49964767    -0.60800
H1065       H  0.76404712  0.57523747  0.55228942     0.16100
O1066       O  0.72532922  0.57838022  0.50180078    -0.60900
H1067       H  0.73717158  0.60613160  0.49376940     0.43100
H1068       H  0.86746917  0.56112820  0.50029677     0.43100
C1069       C  0.58314552  0.45903899  0.47288594    -0.06000
C1070       C  0.59836134  0.47794468  0.50254906    -0.33400
C1071       C  0.57811752  0.46005259  0.53094334     0.35900
C1072       C  0.54322338  0.42209420  0.52966743    -0.06300
C1073       C  0.52607534  0.40513042  0.49979725    -0.33300
C1074       C  0.54573816  0.42360754  0.47134278     0.35800
H1075       H  0.62711689  0.50538331  0.50380282     0.16100
O1076       O  0.59531440  0.47746089  0.55983236    -0.60800
H1077       H  0.49902708  0.37604451  0.49860114     0.16100
O1078       O  0.53015225  0.40485649  0.44244536    -0.60900
H1079       H  0.53944656  0.38565074  0.43980294     0.43100
H1080       H  0.58258436  0.49285965  0.56615403     0.43100
C1081       C  0.57727897  0.38452024  0.35887591    -0.06000
C1082       C  0.53676627  0.36605201  0.36709049    -0.33400
C1083       C  0.51301936  0.32418267  0.36866055     0.35900
C1084       C  0.53009102  0.30077779  0.36183122    -0.06300
C1085       C  0.56883900  0.31939841  0.34917106    -0.33300
C1086       C  0.59265512  0.36094954  0.34832306     0.35800
H1087       H  0.52474411  0.38401802  0.37558757     0.16100
O1088       O  0.47524185  0.30705641  0.38094032    -0.60800
H1089       H  0.58216066  0.30177604  0.34314053     0.16100
O1090       O  0.63200977  0.37828358  0.33992199    -0.60900
H1091       H  0.64570059  0.37654610  0.35945671     0.43100
H1092       H  0.45727312  0.29643449  0.36197421     0.43100
C1093       C  0.76578621  0.48318392  0.36262932    -0.06000
C1094       C  0.80352492  0.50244826  0.37737036    -0.33400
C1095       C  0.82581047  0.48353439  0.37901947     0.35900
C1096       C  0.81060437  0.44534309  0.36538337    -0.06300
C1097       C  0.77554553  0.42861367  0.34707569    -0.33300
C1098       C  0.75315911  0.44733043  0.34554769     0.35800
H1099       H  0.81384345  0.53009688  0.39051637     0.16100
O1100       O  0.86024591  0.50065500  0.39685723    -0.60800
H1101       H  0.76378663  0.39936673  0.33626272     0.16100
O1102       O  0.71725755  0.42856685  0.32970731    -0.60900
H1103       H  0.72297884  0.44081012  0.30800600     0.43100
H1104       H  0.88201964  0.51481680  0.38100939     0.43100
C1105       C  0.53093288  0.67935845  0.21866242    -0.06000
C1106       C  0.55539629  0.71340461  0.23735754    -0.33400
C1107       C  0.55360117  0.71185021  0.27106640     0.35900
C1108       C  0.52673917  0.67573154  0.28683024    -0.06300
C1109       C  0.50217711  0.64177706  0.26800849    -0.33300
C1110       C  0.50424298  0.64327490  0.23435799     0.35800
H1111       H  0.57607352  0.74143347  0.22579689     0.16100
O1112       O  0.57816442  0.74597238  0.28821492    -0.60800
H1113       H  0.48105213  0.61376997  0.27936018     0.16100
O1114       O  0.47854573  0.60970748  0.21705693    -0.60900
H1115       H  0.49100905  0.59306011  0.21688732     0.43100
H1116       H  0.56282004  0.75962706  0.29082548     0.43100
C1117       C  0.65224249  0.61821103  0.40073258    -0.06000
C1118       C  0.62744884  0.61527534  0.42636974    -0.33400
C1119       C  0.60641239  0.63549670  0.42546232     0.35900
C1120       C  0.61037108  0.65954835  0.39887554    -0.06300
C1121       C  0.63796728  0.66553059  0.37472263    -0.33300
C1122       C  0.65913237  0.64529323  0.37563520     0.35800
H1123       H  0.62151652  0.59435039  0.44574592     0.16100
O1124       O  0.57930750  0.62874551  0.44922538    -0.60800
H1125       H  0.64039591  0.68301104  0.35365943     0.16100
O1126       O  0.68194218  0.64784006  0.34968666    -0.60900
H1127       H  0.70867962  0.67138196  0.35414697     0.43100
H1128       H  0.55542311  0.60252304  0.44392840     0.43100
C1129       C  0.34468903  0.87079596  0.29015741    -0.06000
C1130       C  0.30746411  0.84893247  0.27481676    -0.33400
C1131       C  0.30434941  0.84824961  0.24127143     0.35900
C1132       C  0.33894191  0.86957416  0.22229854    -0.06300
C1133       C  0.37604295  0.89254226  0.23778097    -0.33300
C1134       C  0.37906976  0.89338275  0.27135198     0.35800
H1135       H  0.28059269  0.83167073  0.28886549     0.16100
O1136       O  0.26735105  0.82605068  0.22741547    -0.60800
H1137       H  0.40305778  0.90951371  0.22385411     0.16100
O1138       O  0.41579658  0.91645136  0.28545386    -0.60900
H1139       H  0.41826659  0.94272487  0.28944953     0.43100
H1140       H  0.25709904  0.84454681  0.22561391     0.43100
C1141       C  0.34508708  0.96589548  0.39658058    -0.06000
C1142       C  0.36421427  0.98705965  0.42464595    -0.33400
C1143       C  0.38480427  0.02885988  0.42493501     0.35900
C1144       C  0.38545486  0.04988192  0.39713791    -0.06300
C1145       C  0.36190170  0.02849723  0.37051891    -0.33300
C1146       C  0.34205347  0.98658578  0.37000981     0.35800
H1147       H  0.36732759  0.97149432  0.44501876     0.16100
O1148       O  0.40728634  0.04908116  0.45142236    -0.60800
H1149       H  0.36275793  0.04422782  0.34875713     0.16100
O1150       O  0.32427621  0.96653669  0.34202394    -0.60900
H1151       H  0.29563541  0.95742251  0.34457219     0.43100
H1152       H  0.43164128  0.04725424  0.45010023     0.43100
C1153       C  0.43922379  0.81592009  0.37391208    -0.06000
C1154       C  0.42259007  0.77997892  0.35655893    -0.33400
C1155       C  0.44265972  0.75898809  0.35407834     0.35900
C1156       C  0.47982108  0.77374439  0.36919974    -0.06300
C1157       C  0.49847181  0.81180323  0.38349020    -0.33300
C1158       C  0.47838073  0.83299347  0.38591130     0.35800
H1159       H  0.39290285  0.76700943  0.34657079     0.16100
O1160       O  0.42388736  0.72204519  0.33975807    -0.60800
H1161       H  0.52696843  0.82342040  0.39541530     0.16100
O1162       O  0.49562081  0.86827222  0.40278333    -0.60900
H1163       H  0.48983745  0.86039530  0.42572726     0.43100
H1164       H  0.43601315  0.72637068  0.31809343     0.43100
C1165       C  0.14567080  0.48897438  0.28826850    -0.06000
C1166       C  0.12347806  0.50091870  0.26997339    -0.33400
C1167       C  0.12292256  0.49863202  0.23633328     0.35900
C1168       C  0.14560579  0.48495193  0.22022617    -0.06300
C1169       C  0.16846873  0.47376368  0.23867466    -0.33300
C1170       C  0.16858706  0.47563238  0.27234269     0.35800
H1171       H  0.10578195  0.51132794  0.28182274     0.16100
O1172       O  0.10071327  0.51073561  0.21954214    -0.60800
H1173       H  0.18639854  0.46351365  0.22701503     0.16100
O1174       O  0.19162940  0.46478006  0.28942183    -0.60900
H1175       H  0.21746784  0.48993966  0.29279366     0.43100
H1176       H  0.07342990  0.48691302  0.21860452     0.43100
C1177       C  0.03799770  0.39232700  0.39007446    -0.06000
C1178       C  0.01608533  0.37538776  0.36172293    -0.33400
C1179       C  0.97434578  0.35402805  0.36222522     0.35900
C1180       C  0.95430524  0.35058958  0.39122389    -0.06300
C1181       C  0.97617157  0.36375764  0.42005394    -0.33300
C1182       C  0.01791378  0.38444195  0.41962045     0.35800
H1183       H  0.03129380  0.38200693  0.33876070     0.16100
O1184       O  0.95378917  0.34239404  0.33362409    -0.60800
H1185       H  0.96106231  0.36176195  0.44244378     0.16100
O1186       O  0.03876193  0.40071569  0.44763983    -0.60900
H1187       H  0.04084951  0.42707275  0.44974579     0.43100
H1188       H  0.94449853  0.31356879  0.33151868     0.43100
C1189       C  0.26036843  0.72121806  0.37474840    -0.06000
C1190       C  0.21858986  0.70113313  0.37366643    -0.33400
C1191       C  0.19589456  0.65907335  0.37505453     0.35900
C1192       C  0.21531622  0.63701185  0.37761311    -0.06300
C1193       C  0.25703366  0.65740396  0.37548143    -0.33300
C1194       C  0.27941431  0.69895288  0.37393883     0.35800
H1195       H  0.20357472  0.71799931  0.37440069     0.16100
O1196       O  0.15507616  0.64011881  0.37579885    -0.60800
H1197       H  0.27275276  0.64129928  0.37679536     0.16100
O1198       O  0.32021826  0.71780061  0.37411736    -0.60900
H1199       H  0.32733136  0.71284305  0.35240649     0.43100
H1200       H  0.14852568  0.64725529  0.39687462     0.43100
C1201       C  0.28560321  0.53889823  0.37363207    -0.06000
C1202       C  0.30387813  0.57861835  0.36334933    -0.33400
C1203       C  0.34539151  0.60263597  0.36209088     0.35900
C1204       C  0.36935356  0.58691642  0.37120937    -0.06300
C1205       C  0.35085210  0.54599651  0.37865246    -0.33300
C1206       C  0.30917211  0.52207154  0.38015817     0.35800
H1207       H  0.28587795  0.59175536  0.35824426     0.16100
O1208       O  0.36218262  0.64204589  0.35382530    -0.60800
H1209       H  0.36866734  0.53328845  0.38586703     0.16100
O1210       O  0.29204349  0.48351810  0.39092008    -0.60900
H1211       H  0.28700497  0.46711336  0.37126529     0.43100
H1212       H  0.36342114  0.64236877  0.32997067     0.43100
C1213       C  0.52487151  0.86498350  0.78747181    -0.06000
C1214       C  0.54150515  0.84733437  0.76861389    -0.33400
C1215       C  0.53963563  0.84764183  0.73505529     0.35900
C1216       C  0.52036807  0.86538442  0.71963369    -0.06300
C1217       C  0.50378324  0.88312437  0.73842017    -0.33300
C1218       C  0.50597806  0.88315357  0.77201261     0.35800
H1219       H  0.55601355  0.83305845  0.77988289     0.16100
O1220       O  0.55545680  0.82913812  0.71767704    -0.60800
H1221       H  0.48913748  0.89720867  0.72705196     0.16100
O1222       O  0.48917259  0.90071334  0.78936318    -0.60900
H1223       H  0.46126212  0.87908976  0.79323684     0.43100
H1224       H  0.58418566  0.84943045  0.71547432     0.43100
C1225       C  0.61476296  0.96878723  0.61403630    -0.06000
C1226       C  0.63514496  0.99171597  0.64120255    -0.33400
C1227       C  0.65543433  0.03354635  0.64008253     0.35900
C1228       C  0.65460794  0.05277316  0.61167487    -0.06300
C1229       C  0.63756105  0.02999612  0.58369815    -0.33300
C1230       C  0.61788139  0.98816829  0.58470523     0.35800
H1231       H  0.63183952  0.97715755  0.66416736     0.16100
O1232       O  0.67060308  0.05490366  0.66805892    -0.60800
H1233       H  0.63642644  0.04444231  0.56178082     0.16100
O1234       O  0.59783708  0.96641619  0.55790306    -0.60900
H1235       H  0.57191181  0.96530724  0.55810049     0.43100
H1236       H  0.69848683  0.06091361  0.66916947     0.43100
C1237       C  0.54385788  0.80495184  0.53003473    -0.06000
C1238       C  0.55480425  0.82275290  0.49961361    -0.33400
C1239       C  0.55807621  0.80168503  0.47357355     0.35900
C1240       C  0.54801506  0.76161739  0.47761703    -0.06300
C1241       C  0.54009145  0.74517157  0.50859421    -0.33300
C1242       C  0.53859503  0.76675868  0.53478903     0.35800
H1243       H  0.55917776  0.85223130  0.49579179     0.16100
O1244       O  0.56679013  0.81896397  0.44370232    -0.60800
H1245       H  0.53216136  0.71440036  0.51211260     0.16100
O1246       O  0.52713098  0.74831661  0.56419123    -0.60900
H1247       H  0.55227711  0.75474905  0.57520910     0.43100
H1248       H  0.59571131  0.82961161  0.44081804     0.43100
C1249       C  0.43700435  0.91594437  0.47688269    -0.06000
C1250       C  0.41520565  0.91223226  0.50473074    -0.33400
C1251       C  0.43044488  0.91172132  0.53506660     0.35900
C1252       C  0.46795541  0.91517098  0.53759929    -0.06300
C1253       C  0.49195049  0.92447417  0.51016318    -0.33300
C1254       C  0.47663199  0.92501386  0.47975124     0.35800
H1255       H  0.38445081  0.90466156  0.50272017     0.16100
O1256       O  0.40603435  0.90148748  0.56140550    -0.60800
H1257       H  0.52053643  0.92633722  0.51176781     0.16100
O1258       O  0.49833309  0.92843176  0.45280703    -0.60900
H1259       H  0.51403035  0.95747963  0.44822434     0.43100
H1260       H  0.41279237  0.92724555  0.57157735     0.43100
C1261       C  0.14110143  0.67169917  0.72131289    -0.06000
C1262       C  0.12390801  0.63646543  0.73946314    -0.33400
C1263       C  0.12392614  0.63767335  0.77306114     0.35900
C1264       C  0.14150843  0.67474257  0.78942990    -0.06300
C1265       C  0.15842590  0.71008306  0.77129784    -0.33300
C1266       C  0.15801840  0.70879811  0.73754437     0.35800
H1267       H  0.11050335  0.60764098  0.72756670     0.16100
O1268       O  0.10729396  0.60225359  0.78956491    -0.60800
H1269       H  0.17218878  0.73886715  0.78328886     0.16100
O1270       O  0.17585228  0.74406842  0.72079185    -0.60900
H1271       H  0.15514866  0.75146349  0.71882744     0.43100
H1272       H  0.12932278  0.59697220  0.79277928     0.43100
C1273       C  0.96128821  0.62321971  0.60809000    -0.06000
C1274       C  0.98270795  0.62324584  0.58094095    -0.33400
C1275       C  0.02425281  0.64221059  0.58201673     0.35900
C1276       C  0.04467114  0.66193013  0.61027452    -0.06300
C1277       C  0.02381092  0.66659951  0.63568586    -0.33300
C1278       C  0.98214020  0.64774906  0.63454167     0.35800
H1279       H  0.96698544  0.60436763  0.56043893     0.16100
O1280       O  0.04420475  0.63754962  0.55681739    -0.60800
H1281       H  0.03938558  0.68142623  0.65769139     0.16100
O1282       O  0.96200755  0.64817014  0.66138872    -0.60900
H1283       H  0.95917330  0.67186470  0.65872924     0.43100
H1284       H  0.04219539  0.61143935  0.56049440     0.43100
C1285       C  0.10668461  0.57380138  0.53639510    -0.06000
C1286       C  0.10241636  0.59084904  0.50808126    -0.33400
C1287       C  0.10123009  0.57389754  0.47793321     0.35900
C1288       C  0.10402844  0.53937862  0.47603850    -0.06300
C1289       C  0.10370715  0.51997992  0.50460867    -0.33300
C1290       C  0.10498395  0.53694593  0.53469116     0.35800
H1291       H  0.10429449  0.61955222  0.50909260     0.16100
O1292       O  0.10213193  0.59380076  0.45045530    -0.60800
H1293       H  0.10690383  0.49397718  0.50353269     0.16100
O1294       O  0.10983282  0.52003198  0.56194754    -0.60900
H1295       H  0.08323487  0.50597043  0.57227810     0.43100
H1296       H  0.13025666  0.61575593  0.44833663     0.43100
C1297       C  0.20949349  0.75819339  0.53180715    -0.06000
C1298       C  0.24458049  0.79510084  0.53691429    -0.33400
C1299       C  0.26854969  0.81714312  0.51100273     0.35900
C1300       C  0.25654755  0.80315760  0.47935698    -0.06300
C1301       C  0.21924181  0.76849213  0.47409750    -0.33300
C1302       C  0.19620590  0.74544787  0.50012351     0.35800
H1303       H  0.25536079  0.80502047  0.56111599     0.16100
O1304       O  0.30495375  0.85062430  0.51697032    -0.60800
H1305       H  0.20968115  0.75720501  0.44985479     0.16100
O1306       O  0.16173917  0.70969078  0.49443569    -0.60900
H1307       H  0.17042909  0.69046998  0.48927435     0.43100
H1308       H  0.30011285  0.87320221  0.51622802     0.43100
C1309       C  0.37115313  0.80834023  0.63669065    -0.06000
C1310       C  0.34951561  0.82611988  0.62679275    -0.33400
C1311       C  0.30789207  0.80485058  0.62885591     0.35900
C1312       C  0.28792512  0.76533934  0.64026966    -0.06300
C1313       C  0.30977651  0.74965465  0.65383843    -0.33300
C1314       C  0.35136314  0.77141651  0.65275200     0.35800
H1315       H  0.36450788  0.85497090  0.61502779     0.16100
O1316       O  0.28694672  0.82115947  0.61635212    -0.60800
H1317       H  0.29456025  0.71946114  0.66319490     0.16100
O1318       O  0.37233683  0.75547189  0.66583849    -0.60900
H1319       H  0.37837395  0.76576153  0.68824286     0.43100
H1320       H  0.27765309  0.82961997  0.63530089     0.43100
C1321       C  0.33335797  0.48179067  0.71852193    -0.06000
C1322       C  0.36812332  0.50274227  0.73714566    -0.33400
C1323       C  0.36649248  0.50092175  0.77080273     0.35900
C1324       C  0.32956581  0.47770330  0.78662225    -0.06300
C1325       C  0.29472890  0.45703889  0.76802909    -0.33300
C1326       C  0.29633972  0.45888567  0.73435782     0.35800
H1327       H  0.39680784  0.52068146  0.72560688     0.16100
O1328       O  0.40122504  0.52267813  0.78794980    -0.60800
H1329       H  0.26603797  0.43936792  0.77962395     0.16100
O1330       O  0.26136649  0.43846056  0.71727611    -0.60900
H1331       H  0.25282762  0.45808844  0.71353940     0.43100
H1332       H  0.40428742  0.54936699  0.79099922     0.43100
C1333       C  0.34669994  0.39374281  0.60942981    -0.06000
C1334       C  0.36971319  0.39678743  0.58257776    -0.33400
C1335       C  0.39213631  0.37802516  0.58235712     0.35900
C1336       C  0.39125153  0.35532648  0.60911752    -0.06300
C1337       C  0.36459368  0.34848453  0.63429901    -0.33300
C1338       C  0.34263763  0.36788658  0.63469952     0.35800
H1339       H  0.37350970  0.41701215  0.56316824     0.16100
O1340       O  0.41698975  0.38424014  0.55687115    -0.60800
H1341       H  0.36397616  0.33163006  0.65524052     0.16100
O1342       O  0.32118782  0.36528100  0.66161050    -0.60900
H1343       H  0.29400832  0.34227039  0.65749124     0.43100
H1344       H  0.44022367  0.41162309  0.55991384     0.43100
C1345       C  0.19502138  0.44844465  0.47758014    -0.06000
C1346       C  0.18281979  0.45068213  0.50881224    -0.33400
C1347       C  0.20473567  0.45089830  0.53548196     0.35900
C1348       C  0.23946575  0.44909443  0.53102606    -0.06300
C1349       C  0.24951657  0.44301232  0.50006035    -0.33300
C1350       C  0.22691743  0.44172103  0.47339217     0.35800
H1351       H  0.15843883  0.45597061  0.51241959     0.16100
O1352       O  0.19477609  0.45782163  0.56542449    -0.60800
H1353       H  0.27643572  0.44202524  0.49634268     0.16100
O1354       O  0.23949195  0.43920985  0.44317466    -0.60900
H1355       H  0.22556492  0.41020816  0.43826456     0.43100
H1356       H  0.20666824  0.48720889  0.56670894     0.43100
C1357       C  0.42625662  0.54392250  0.53140791    -0.06000
C1358       C  0.40836242  0.52405824  0.50246712    -0.33400
C1359       C  0.42464445  0.54191078  0.47274689     0.35900
C1360       C  0.45933654  0.57995127  0.47183523    -0.06300
C1361       C  0.47913194  0.59820988  0.50067136    -0.33300
C1362       C  0.46263684  0.58054825  0.53040633     0.35800
H1363       H  0.37953623  0.49665713  0.50292117     0.16100
O1364       O  0.40375997  0.52438960  0.44500965    -0.60800
H1365       H  0.50525686  0.62801812  0.50024032     0.16100
O1366       O  0.47986816  0.60133269  0.55827973    -0.60900
H1367       H  0.46805934  0.61827298  0.56188919     0.43100
H1368       H  0.41401697  0.50726423  0.43736543     0.43100
C1369       C  0.41373754  0.63599154  0.63073504    -0.06000
C1370       C  0.39335168  0.65683422  0.62912867    -0.33400
C1371       C  0.41381921  0.69832988  0.62835319     0.35900
C1372       C  0.45566108  0.72057484  0.63088672    -0.06300
C1373       C  0.47627006  0.70020604  0.63563801    -0.33300
C1374       C  0.45556111  0.65801822  0.63544180     0.35800
H1375       H  0.36131708  0.64103146  0.62594689     0.16100
O1376       O  0.39259471  0.71695510  0.62324996    -0.60800
H1377       H  0.50852736  0.71683187  0.63701737     0.16100
O1378       O  0.47682883  0.63899747  0.63718877    -0.60900
H1379       H  0.47614846  0.63202927  0.66022705     0.43100
H1380       H  0.38551642  0.71317608  0.60003341     0.43100
C1381       C  0.24350483  0.53526097  0.63833864    -0.06000
C1382       C  0.26621138  0.57636670  0.64463951    -0.33400
C1383       C  0.24879177  0.60000921  0.64446451     0.35900
C1384       C  0.20760859  0.58251005  0.63821845    -0.06300
C1385       C  0.18411913  0.54058595  0.63539127    -0.33300
C1386       C  0.20187402  0.51697422  0.63539442     0.35800
H1387       H  0.29825433  0.59074550  0.64721965     0.16100
O1388       O  0.27264218  0.64048443  0.64910934    -0.60800
H1389       H  0.15243865  0.52639493  0.63063549     0.16100
O1390       O  0.17881584  0.47677457  0.62943842    -0.60900
H1391       H  0.17074307  0.46422113  0.65097446     0.43100
H1392       H  0.28722507  0.65112700  0.62857382     0.43100
loop_ 
_geom_bond_atom_site_label_1 
_geom_bond_atom_site_label_2 
_geom_bond_distance 
_geom_bond_site_symmetry_2 
_ccdc_geom_bond_type 
O1           C16   1.266       .  A
O1           Al9   1.931       .  S
C2           O12   1.262       .  A
C2            O3   1.256       .  A
C2         C1357   1.467       .  S
O3           Al5   1.885       .  S
O4            C6   1.257       .  A
O4           Al5   1.890       .  S
Al5          O13   1.875       .  S
Al5          O15   1.903       .  S
Al5          O14   1.769       .  S
C6           O19   1.261       .  A
C6         C1348   1.467       .  S
O7           C17   1.267       .  A
O7           Al9   1.922       .  S
O8           C21   1.264       .  A
O8          Al18   1.907       .  S
Al9          O22   1.903       .  S
Al9          O19   1.922       .  S
Al9          O14   1.792       .  S
O10          C17   1.264       .  A
O10         Al18   1.908       .  S
O11          C20   1.264       .  A
O11         Al18   1.938       .  S
O12         Al18   1.921       .  S
O13          C20   1.259       .  A
O14         Al18   1.787       .  S
O15          C16   1.261       .  A
C16        C1381   1.476       .  S
C17        C1333   1.471       .  S
C20        C1369   1.487       .  S
C21          O22   1.260       .  A
C21        C1321   1.483       .  S
O23          C38   1.260       .  A
O23         Al31   1.898       .  S
C24          O34   1.261       .  A
C24          O25   1.261       .  A
C24        C1285   1.471       .  S
O25         Al27   1.908       .  S
O26          C28   1.257       .  A
O26         Al27   1.889       .  S
Al27         O35   1.887       .  S
Al27         O37   1.907       .  S
Al27         O36   1.768       .  S
C28          O41   1.263       .  A
C28        C1297   1.471       .  S
O29          C39   1.261       .  A
O29         Al31   1.899       .  S
O30          C43   1.264       .  A
O30         Al40   1.896       .  S
Al31         O44   1.919       .  S
Al31         O41   1.929       .  S
Al31         O36   1.793       .  S
O32          C39   1.265       .  A
O32         Al40   1.917       .  S
O33          C42   1.267       .  A
O33         Al40   1.947       .  S
O34         Al40   1.914       .  S
O35          C42   1.258       .  A
O36         Al40   1.781       .  S
O37          C38   1.263       .  A
C38        C1312   1.459       .  S
C39        C1276   1.463       .  S
C42        C1384   1.490       .  S
C43          O44   1.264       .  A
C43        C1261   1.481       .  S
O45          C60   1.267       .  A
O45         Al53   1.933       .  S
C46          O56   1.260       .  A
C46          O47   1.260       .  A
C46        C1252   1.463       .  S
O47         Al49   1.896       .  S
O48          C50   1.262       .  A
O48         Al49   1.907       .  S
Al49         O57   1.892       .  S
Al49         O59   1.893       .  S
Al49         O58   1.769       .  S
C50          O63   1.260       .  A
C50        C1237   1.468       .  S
O51          C61   1.265       .  A
O51         Al53   1.922       .  S
O52          C65   1.261       .  A
O52         Al62   1.890       .  S
Al53         O66   1.906       .  S
Al53         O63   1.904       .  S
Al53         O58   1.786       .  S
O54          C61   1.261       .  A
O54         Al62   1.898       .  S
O55          C64   1.260       .  A
O55         Al62   1.920       .  S
O56         Al62   1.909       .  S
O57          C64   1.259       .  A
O58         Al62   1.788       .  S
O59          C60   1.260       .  A
C60        C1372   1.478       .  S
C61        C1225   1.467       .  S
C64        C1309   1.468       .  S
C65          O66   1.262       .  A
C65        C1216   1.475       .  S
O67          C82   1.262       .  A
O67         Al75   1.912       .  S
C68          O78   1.263       .  A
C68          O69   1.257       .  A
C68        C1288   1.473       .  S
O69         Al71   1.893       .  S
O70          C72   1.258       .  A
O70         Al71   1.885       .  S
Al71         O79   1.878       .  S
Al71         O81   1.906       .  S
Al71         O80   1.770       .  S
C72          O85   1.263       .  A
C72        C1345   1.471       .  S
O73          C83   1.264       .  A
O73         Al75   1.910       .  S
O74          C87   1.262       .  A
O74         Al84   1.902       .  S
Al75         O88   1.905       .  S
Al75         O85   1.924       .  S
Al75         O80   1.791       .  S
O76          C83   1.264       .  A
O76         Al84   1.910       .  S
O77          C86   1.265       .  A
O77         Al84   1.936       .  S
O78         Al84   1.927       .  S
O79          C86   1.259       .  A
O80         Al84   1.786       .  S
O81          C82   1.260       .  A
C82        C1201   1.467       .  S
C83        C1177   1.467       .  S
C86        C1192   1.483       .  S
C87          O88   1.261       .  A
C87        C1165   1.477       .  S
O89         C104   1.263       .  A
O89         Al97   1.917       .  S
C90         O100   1.259       .  A
C90          O91   1.260       .  A
C90        C1249   1.464       .  S
O91         Al93   1.899       .  S
O92          C94   1.260       .  A
O92         Al93   1.895       .  S
Al93        O101   1.888       .  S
Al93        O103   1.894       .  S
Al93        O102   1.770       .  S
C94         O107   1.262       .  A
C94        C1300   1.472       .  S
O95         C105   1.263       .  A
O95         Al97   1.915       .  S
O96         C109   1.262       .  A
O96        Al106   1.891       .  S
Al97        O110   1.911       .  S
Al97        O107   1.920       .  S
Al97        O102   1.791       .  S
O98         C105   1.261       .  A
O98        Al106   1.902       .  S
O99         C108   1.264       .  A
O99        Al106   1.938       .  S
O100       Al106   1.909       .  S
O101        C108   1.258       .  A
O102       Al106   1.789       .  S
O103        C104   1.260       .  A
C104       C1189   1.471       .  S
C105       C1141   1.466       .  S
C108       C1153   1.477       .  S
C109        O110   1.264       .  A
C109       C1129   1.475       .  S
O111        C126   1.263       .  A
O111       Al119   1.920       .  S
C112        O122   1.262       .  A
C112        O113   1.262       .  A
C112       C1360   1.468       .  S
O113       Al115   1.908       .  S
O114        C116   1.258       .  A
O114       Al115   1.880       .  S
Al115       O123   1.896       .  S
Al115       O125   1.899       .  S
Al115       O124   1.771       .  S
C116        O129   1.263       .  A
C116       C1240   1.472       .  S
O117        C127   1.264       .  A
O117       Al119   1.924       .  S
O118        C131   1.265       .  A
O118       Al128   1.897       .  S
Al119       O132   1.923       .  S
Al119       O129   1.926       .  S
Al119       O124   1.791       .  S
O120        C127   1.261       .  A
O120       Al128   1.906       .  S
O121        C130   1.263       .  A
O121       Al128   1.927       .  S
O122       Al128   1.912       .  S
O123        C130   1.259       .  A
O124       Al128   1.785       .  S
O125        C126   1.260       .  A
C126       C1156   1.471       .  S
C127       C1120   1.474       .  S
C130       C1204   1.480       .  S
C131        O132   1.267       .  A
C131       C1108   1.487       .  S
O133        C148   1.262       .  A
O133       Al141   1.891       .  S
C134        O144   1.262       .  A
C134        O135   1.264       .  A
C134       C1069   1.457       .  S
O135       Al137   1.915       .  S
O136        C138   1.254       .  A
O136       Al137   1.874       .  S
Al137       O145   1.904       .  S
Al137       O147   1.917       .  S
Al137       O146   1.783       .  S
C138        O151   1.268       .  A
C138       C1117   1.481       .  S
O139        C149   1.267       .  A
O139       Al141   1.936       .  S
O140        C153   1.261       .  A
O140       Al150   1.887       .  S
Al141       O154   1.956       .  S
Al141       O151   1.953       .  S
Al141       O146   1.785       .  S
O142        C149   1.261       .  A
O142       Al150   1.910       .  S
O143        C152   1.259       .  A
O143       Al150   1.904       .  S
O144       Al150   1.883       .  S
O145        C152   1.257       .  A
O146       Al150   1.766       .  S
O147        C148   1.266       .  A
C148       C1048   1.486       .  S
C149       C1057   1.479       .  S
C152       C1081   1.467       .  S
C153        O154   1.271       .  A
C153       C1093   1.478       .  S
O155        C170   1.262       .  A
O155       Al163   1.893       .  S
C156        O166   1.260       .  A
C156        O157   1.264       .  A
C156       C1072   1.461       .  S
O157       Al159   1.920       .  S
O158        C160   1.257       .  A
O158       Al159   1.871       .  S
Al159       O167   1.908       .  S
Al159       O169   1.909       .  S
Al159       O168   1.783       .  S
C160        O173   1.269       .  A
C160       C1336   1.479       .  S
O161        C171   1.261       .  A
O161       Al163   1.924       .  S
O162        C175   1.259       .  A
O162       Al172   1.867       .  S
Al163       O176   1.967       .  S
Al163       O173   1.951       .  S
Al163       O168   1.786       .  S
O164        C171   1.258       .  A
O164       Al172   1.907       .  S
O165        C174   1.261       .  A
O165       Al172   1.908       .  S
O166       Al172   1.878       .  S
O167        C174   1.259       .  A
O168       Al172   1.765       .  S
O169        C170   1.263       .  A
C170        C997   1.483       .  S
C171       C1009   1.474       .  S
C174       C1021   1.469       .  S
C175        O176   1.273       .  A
C175       C1033   1.480       .  S
O177        C192   1.261       .  A
O177       Al185   1.893       .  S
C178        O188   1.262       .  A
C178        O179   1.267       .  A
C178        C973   1.470       .  S
O179       Al181   1.929       .  S
O180        C182   1.256       .  A
O180       Al181   1.866       .  S
Al181       O189   1.903       .  S
Al181       O191   1.912       .  S
Al181       O190   1.781       .  S
C182        O195   1.267       .  A
C182       C1144   1.473       .  S
O183        C193   1.262       .  A
O183       Al185   1.933       .  S
O184        C197   1.259       .  A
O184       Al194   1.860       .  S
Al185       O198   1.964       .  S
Al185       O195   1.946       .  S
Al185       O190   1.786       .  S
O186        C193   1.256       .  A
O186       Al194   1.898       .  S
O187        C196   1.258       .  A
O187       Al194   1.902       .  S
O188       Al194   1.877       .  S
O189        C196   1.257       .  A
O190       Al194   1.766       .  S
O191        C192   1.263       .  A
C192        C961   1.485       .  S
C193       C1012   1.476       .  S
C196        C985   1.463       .  S
C197        O198   1.273       .  A
C197       C1084   1.476       .  S
O199        C214   1.260       .  A
O199       Al207   1.894       .  S
C200        O210   1.257       .  A
C200        O201   1.261       .  A
C200        C937   1.457       .  S
O201       Al203   1.921       .  S
O202        C204   1.257       .  A
O202       Al203   1.860       .  S
Al203       O211   1.895       .  S
Al203       O213   1.904       .  S
Al203       O212   1.785       .  S
C204        O217   1.270       .  A
C204       C1273   1.469       .  S
O205        C215   1.262       .  A
O205       Al207   1.921       .  S
O206        C219   1.259       .  A
O206       Al216   1.870       .  S
Al207       O220   1.954       .  S
Al207       O217   1.953       .  S
Al207       O212   1.787       .  S
O208        C215   1.260       .  A
O208       Al216   1.905       .  S
O209        C218   1.264       .  A
O209       Al216   1.920       .  S
O210       Al216   1.881       .  S
O211        C218   1.257       .  A
O212       Al216   1.762       .  S
O213        C214   1.260       .  A
C214        C925   1.475       .  S
C215       C1060   1.477       .  S
C218        C949   1.461       .  S
C219        O220   1.271       .  A
C219       C1024   1.486       .  S
O221        C236   1.262       .  A
O221       Al229   1.893       .  S
C222        O232   1.259       .  A
C222        O223   1.265       .  A
C222        C940   1.462       .  S
O223       Al225   1.928       .  S
O224        C226   1.256       .  A
O224       Al225   1.872       .  S
Al225       O233   1.908       .  S
Al225       O235   1.913       .  S
Al225       O234   1.779       .  S
C226        O239   1.266       .  A
C226       C1180   1.467       .  S
O227        C237   1.264       .  A
O227       Al229   1.930       .  S
O228        C241   1.260       .  A
O228       Al238   1.872       .  S
Al229       O242   1.949       .  S
Al229       O239   1.941       .  S
Al229       O234   1.781       .  S
O230        C237   1.260       .  A
O230       Al238   1.914       .  S
O231        C240   1.261       .  A
O231       Al238   1.919       .  S
O232       Al238   1.870       .  S
O233        C240   1.259       .  A
O234       Al238   1.764       .  S
O235        C236   1.264       .  A
C236        C901   1.484       .  S
C237        C916   1.478       .  S
C240       C1096   1.469       .  S
C241        O242   1.272       .  A
C241        C988   1.478       .  S
O243        C258   1.264       .  A
O243       Al251   1.897       .  S
C244        O254   1.260       .  A
C244        O245   1.261       .  A
C244        C976   1.458       .  S
O245       Al247   1.911       .  S
O246        C248   1.257       .  A
O246       Al247   1.887       .  S
Al247       O255   1.913       .  S
Al247       O257   1.911       .  S
Al247       O256   1.784       .  S
C248        O261   1.263       .  A
C248       C1228   1.472       .  S
O249        C259   1.267       .  A
O249       Al251   1.931       .  S
O250        C263   1.260       .  A
O250       Al260   1.885       .  S
Al251       O264   1.936       .  S
Al251       O261   1.931       .  S
Al251       O256   1.793       .  S
O252        C259   1.262       .  A
O252       Al260   1.915       .  S
O253        C262   1.260       .  A
O253       Al260   1.908       .  S
O254       Al260   1.888       .  S
O255        C262   1.259       .  A
O256       Al260   1.768       .  S
O257        C258   1.265       .  A
C258        C889   1.478       .  S
C259        C913   1.480       .  S
C262       C1036   1.475       .  S
C263        O264   1.265       .  A
C263        C952   1.475       .  S
O265        C280   1.266       .  A
O265       Al273   1.930       .  S
C266        O276   1.260       .  A
C266        O267   1.260       .  A
C266        C856   1.466       .  S
O267       Al269   1.902       .  S
O268        C270   1.260       .  A
O268       Al269   1.894       .  S
Al269       O277   1.890       .  S
Al269       O279   1.902       .  S
Al269       O278   1.774       .  S
C270        O283   1.264       .  A
C270        C841   1.472       .  S
O271        C281   1.264       .  A
O271       Al273   1.927       .  S
O272        C285   1.263       .  A
O272       Al282   1.892       .  S
Al273       O286   1.920       .  S
Al273       O283   1.921       .  S
Al273       O278   1.790       .  S
O274        C281   1.259       .  A
O274       Al282   1.900       .  S
O275        C284   1.264       .  A
O275       Al282   1.931       .  S
O276       Al282   1.912       .  S
O277        C284   1.260       .  A
O278       Al282   1.790       .  S
O279        C280   1.259       .  A
C280        C877   1.479       .  S
C281        C832   1.474       .  S
C284        C868   1.479       .  S
C285        O286   1.266       .  A
C285       C1045   1.482       .  S
O287        C302   1.264       .  A
O287       Al295   1.921       .  S
C288        O298   1.259       .  A
C288        O289   1.259       .  A
C288        C853   1.464       .  S
O289       Al291   1.898       .  S
O290        C292   1.259       .  A
O290       Al291   1.889       .  S
Al291       O299   1.881       .  S
Al291       O301   1.902       .  S
Al291       O300   1.769       .  S
C292        O305   1.264       .  A
C292        C796   1.473       .  S
O293        C303   1.263       .  A
O293       Al295   1.914       .  S
O294        C307   1.262       .  A
O294       Al304   1.892       .  S
Al295       O308   1.913       .  S
Al295       O305   1.925       .  S
Al295       O300   1.788       .  S
O296        C303   1.263       .  A
O296       Al304   1.911       .  S
O297        C306   1.265       .  A
O297       Al304   1.939       .  S
O298       Al304   1.909       .  S
O299        C306   1.259       .  A
O300       Al304   1.787       .  S
O301        C302   1.260       .  A
C302        C817   1.471       .  S
C303        C784   1.470       .  S
C306        C805   1.483       .  S
C307        O308   1.263       .  A
C307       C1000   1.479       .  S
O309        C324   1.262       .  A
O309       Al317   1.914       .  S
C310        O320   1.262       .  A
C310        O311   1.259       .  A
C310        C745   1.468       .  S
O311       Al313   1.896       .  S
O312        C314   1.261       .  A
O312       Al313   1.890       .  S
Al313       O321   1.895       .  S
Al313       O323   1.901       .  S
Al313       O322   1.770       .  S
C314        O327   1.263       .  A
C314        C760   1.479       .  S
O315        C325   1.262       .  A
O315       Al317   1.910       .  S
O316        C329   1.263       .  A
O316       Al326   1.896       .  S
Al317       O330   1.915       .  S
Al317       O327   1.926       .  S
Al317       O322   1.788       .  S
O318        C325   1.263       .  A
O318       Al326   1.910       .  S
O319        C328   1.265       .  A
O319       Al326   1.936       .  S
O320       Al326   1.919       .  S
O321        C328   1.261       .  A
O322       Al326   1.783       .  S
O323        C324   1.259       .  A
C324        C769   1.464       .  S
C325        C736   1.468       .  S
C328        C820   1.482       .  S
C329        O330   1.264       .  A
C329        C892   1.484       .  S
O331        C346   1.264       .  A
O331       Al339   1.917       .  S
C332        O342   1.260       .  A
C332        O333   1.261       .  A
C332        C721   1.467       .  S
O333       Al335   1.908       .  S
O334        C336   1.259       .  A
O334       Al335   1.889       .  S
Al335       O343   1.888       .  S
Al335       O345   1.903       .  S
Al335       O344   1.766       .  S
C336        O349   1.263       .  A
C336        C844   1.470       .  S
O337        C347   1.264       .  A
O337       Al339   1.914       .  S
O338        C351   1.260       .  A
O338       Al348   1.889       .  S
Al339       O352   1.919       .  S
Al339       O349   1.927       .  S
Al339       O344   1.789       .  S
O340        C347   1.263       .  A
O340       Al348   1.907       .  S
O341        C350   1.262       .  A
O341       Al348   1.926       .  S
O342       Al348   1.908       .  S
O343        C350   1.257       .  A
O344       Al348   1.784       .  S
O345        C346   1.262       .  A
C346        C808   1.470       .  S
C347        C709   1.466       .  S
C350        C772   1.466       .  S
C351        O352   1.265       .  A
C351        C928   1.481       .  S
O353        C368   1.264       .  A
O353       Al361   1.909       .  S
C354        O364   1.259       .  A
C354        O355   1.257       .  A
C354        C748   1.472       .  S
O355       Al357   1.889       .  S
O356        C358   1.254       .  A
O356       Al357   1.888       .  S
Al357       O365   1.871       .  S
Al357       O367   1.914       .  S
Al357       O366   1.767       .  S
C358        O371   1.260       .  A
C358        C793   1.468       .  S
O359        C369   1.265       .  A
O359       Al361   1.904       .  S
O360        C373   1.260       .  A
O360       Al370   1.901       .  S
Al361       O374   1.908       .  S
Al361       O371   1.929       .  S
Al361       O366   1.796       .  S
O362        C369   1.268       .  A
O362       Al370   1.912       .  S
O363        C372   1.265       .  A
O363       Al370   1.937       .  S
O364       Al370   1.915       .  S
O365        C372   1.257       .  A
O366       Al370   1.788       .  S
O367        C368   1.265       .  A
C368        C865   1.466       .  S
C369        C688   1.461       .  S
C372        C697   1.492       .  S
C373        O374   1.260       .  A
C373        C964   1.482       .  S
O375        C390   1.267       .  A
O375       Al383   1.935       .  S
C376        O386   1.259       .  A
C376        O377   1.254       .  A
C376        C724   1.465       .  S
O377       Al379   1.877       .  S
O378        C380   1.259       .  A
O378       Al379   1.902       .  S
Al379       O387   1.892       .  S
Al379       O389   1.885       .  S
Al379       O388   1.771       .  S
C380        O393   1.260       .  A
C380        C757   1.468       .  S
O381        C391   1.267       .  A
O381       Al383   1.920       .  S
O382        C395   1.260       .  A
O382       Al392   1.899       .  S
Al383       O396   1.897       .  S
Al383       O393   1.917       .  S
Al383       O388   1.795       .  S
O384        C391   1.266       .  A
O384       Al392   1.911       .  S
O385        C394   1.266       .  A
O385       Al392   1.944       .  S
O386       Al392   1.917       .  S
O387        C394   1.260       .  A
O388       Al392   1.791       .  S
O389        C390   1.260       .  A
C390        C700   1.476       .  S
C391        C673   1.472       .  S
C394        C880   1.485       .  S
C395        O396   1.259       .  A
C395        C904   1.475       .  S
O397        C412   1.265       .  A
O397       Al405   1.904       .  S
C398        O408   1.259       .  A
C398        O399   1.262       .  A
C398        C637   1.464       .  S
O399       Al401   1.919       .  S
O400        C402   1.256       .  A
O400       Al401   1.870       .  S
Al401       O409   1.898       .  S
Al401       O411   1.914       .  S
Al401       O410   1.781       .  S
C402        O415   1.270       .  A
C402        C781   1.478       .  S
O403        C413   1.265       .  A
O403       Al405   1.924       .  S
O404        C417   1.259       .  A
O404       Al414   1.883       .  S
Al405       O418   1.959       .  S
Al405       O415   1.959       .  S
Al405       O410   1.788       .  S
O406        C413   1.263       .  A
O406       Al414   1.913       .  S
O407        C416   1.262       .  A
O407       Al414   1.914       .  S
O408       Al414   1.888       .  S
O409        C416   1.258       .  A
O410       Al414   1.763       .  S
O411        C412   1.264       .  A
C412       C1324   1.483       .  S
C413        C625   1.476       .  S
C416        C649   1.466       .  S
C417        O418   1.271       .  A
C417        C661   1.480       .  S
O419        C434   1.262       .  A
O419       Al427   1.903       .  S
C420        O430   1.260       .  A
C420        O421   1.263       .  A
C420        C589   1.462       .  S
O421       Al423   1.921       .  S
O422        C424   1.257       .  A
O422       Al423   1.869       .  S
Al423       O431   1.904       .  S
Al423       O433   1.905       .  S
Al423       O432   1.779       .  S
C424        O437   1.272       .  A
C424        C676   1.474       .  S
O425        C435   1.262       .  A
O425       Al427   1.929       .  S
O426        C439   1.259       .  A
O426       Al436   1.866       .  S
Al427       O440   1.972       .  S
Al427       O437   1.961       .  S
Al427       O432   1.783       .  S
O428        C435   1.259       .  A
O428       Al436   1.900       .  S
O429        C438   1.263       .  A
O429       Al436   1.920       .  S
O430       Al436   1.884       .  S
O431        C438   1.259       .  A
O432       Al436   1.763       .  S
O433        C434   1.260       .  A
C434       C1168   1.486       .  S
C435        C628   1.475       .  S
C438        C601   1.464       .  S
C439        O440   1.275       .  A
C439        C616   1.490       .  S
O441        C456   1.262       .  A
O441       Al449   1.903       .  S
C442        O452   1.261       .  A
C442        O443   1.263       .  A
C442        C592   1.456       .  S
O443       Al445   1.914       .  S
O444        C446   1.258       .  A
O444       Al445   1.879       .  S
Al445       O453   1.923       .  S
Al445       O455   1.899       .  S
Al445       O454   1.779       .  S
C446        O459   1.266       .  A
C446        C712   1.471       .  S
O447        C457   1.263       .  A
O447       Al449   1.931       .  S
O448        C461   1.262       .  A
O448       Al458   1.869       .  S
Al449       O462   1.949       .  S
Al449       O459   1.938       .  S
Al449       O454   1.788       .  S
O450        C457   1.257       .  A
O450       Al458   1.899       .  S
O451        C460   1.260       .  A
O451       Al458   1.918       .  S
O452       Al458   1.884       .  S
O453        C460   1.262       .  A
O454       Al458   1.766       .  S
O455        C456   1.260       .  A
C456       C1264   1.483       .  S
C457        C565   1.475       .  S
C460        C664   1.476       .  S
C461        O462   1.271       .  A
C461        C577   1.478       .  S
O463        C478   1.262       .  A
O463       Al471   1.887       .  S
C464        O474   1.261       .  A
C464        O465   1.263       .  A
C464        C556   1.464       .  S
O465       Al467   1.915       .  S
O466        C468   1.256       .  A
O466       Al467   1.873       .  S
Al467       O475   1.900       .  S
Al467       O477   1.913       .  S
Al467       O476   1.780       .  S
C468        O481   1.267       .  A
C468        C733   1.470       .  S
O469        C479   1.263       .  A
O469       Al471   1.922       .  S
O470        C483   1.258       .  A
O470       Al480   1.873       .  S
Al471       O484   1.962       .  S
Al471       O481   1.947       .  S
Al471       O476   1.784       .  S
O472        C479   1.263       .  A
O472       Al480   1.919       .  S
O473        C482   1.262       .  A
O473       Al480   1.914       .  S
O474       Al480   1.885       .  S
O475        C482   1.258       .  A
O476       Al480   1.764       .  S
O477        C478   1.264       .  A
C478       C1213   1.478       .  S
C479        C541   1.477       .  S
C482        C580   1.467       .  S
C483        O484   1.271       .  A
C483        C652   1.479       .  S
O485        C500   1.262       .  A
O485       Al493   1.888       .  S
C486        O496   1.259       .  A
C486        O487   1.262       .  A
C486        C553   1.456       .  S
O487       Al489   1.920       .  S
O488        C490   1.257       .  A
O488       Al489   1.878       .  S
Al489       O497   1.908       .  S
Al489       O499   1.917       .  S
Al489       O498   1.781       .  S
C490        O503   1.264       .  A
C490        C685   1.468       .  S
O491        C501   1.263       .  A
O491       Al493   1.917       .  S
O492        C505   1.259       .  A
O492       Al502   1.883       .  S
Al493       O506   1.937       .  S
Al493       O503   1.930       .  S
Al493       O498   1.786       .  S
O494        C501   1.262       .  A
O494       Al502   1.916       .  S
O495        C504   1.261       .  A
O495       Al502   1.911       .  S
O496       Al502   1.879       .  S
O497        C504   1.260       .  A
O498       Al502   1.763       .  S
O499        C500   1.266       .  A
C500       C1132   1.481       .  S
C501        C568   1.473       .  S
C504        C532   1.469       .  S
C505        O506   1.267       .  A
C505        C604   1.470       .  S
O507        C522   1.263       .  A
O507       Al515   1.898       .  S
C508        O518   1.260       .  A
C508        O509   1.264       .  A
C508        C640   1.466       .  S
O509       Al511   1.920       .  S
O510        C512   1.258       .  A
O510       Al511   1.883       .  S
Al511       O519   1.912       .  S
Al511       O521   1.914       .  S
Al511       O520   1.782       .  S
C512        O525   1.268       .  A
C512        C829   1.480       .  S
O513        C523   1.264       .  A
O513       Al515   1.928       .  S
O514        C527   1.258       .  A
O514       Al524   1.866       .  S
Al515       O528   1.962       .  S
Al515       O525   1.948       .  S
Al515       O520   1.790       .  S
O516        C523   1.259       .  A
O516       Al524   1.907       .  S
O517        C526   1.260       .  A
O517       Al524   1.908       .  S
O518       Al524   1.886       .  S
O519        C526   1.260       .  A
O520       Al524   1.768       .  S
O521        C522   1.264       .  A
C522       C1105   1.482       .  S
C523        C544   1.475       .  S
C526        C613   1.474       .  S
C527        O528   1.271       .  A
C527        C529   1.476       .  S
C529        C530   1.405       .  A
C529        C534   1.409       .  A
C530        C531   1.396       .  A
C530        H535   1.084       .  S
C531        C532   1.403       .  A
C531        O536   1.370       .  S
C532        C533   1.405       .  A
C533        C534   1.406       .  A
C533        H537   1.084       .  S
C534        O538   1.372       .  S
O536        H540   0.992       .  S
O538        H539   0.992       .  S
C541        C542   1.402       .  A
C541        C546   1.407       .  A
C542        C543   1.401   1_556  A
C542        H547   1.082       .  S
C543        C544   1.406       .  A
C543        O548   1.370       .  S
C544        C545   1.405       .  A
C545        C546   1.407   1_554  A
C545        H549   1.083       .  S
C546        O550   1.370       .  S
O548        H552   0.991       .  S
O550        H551   0.992       .  S
C553        C554   1.400       .  A
C553        C558   1.404       .  A
C554        C555   1.396       .  A
C554        H559   1.084       .  S
C555        C556   1.407   1_554  A
C555        O560   1.371       .  S
C556        C557   1.403       .  A
C557        C558   1.394   1_556  A
C557        H561   1.084       .  S
C558        O562   1.371       .  S
O560        H564   0.992       .  S
O562        H563   0.991       .  S
C565        C566   1.404   1_556  A
C565        C570   1.408       .  A
C566        C567   1.406       .  A
C566        H571   1.083       .  S
C567        C568   1.408       .  A
C567        O572   1.371       .  S
C568        C569   1.400       .  A
C569        C570   1.401   1_554  A
C569        H573   1.083       .  S
C570        O574   1.371       .  S
O572        H576   0.991       .  S
O574        H575   0.992       .  S
C577        C578   1.402       .  A
C577        C582   1.411       .  A
C578        C579   1.390       .  A
C578        H583   1.080       .  S
C579        C580   1.400       .  A
C579        O584   1.369       .  S
C580        C581   1.404       .  A
C581        C582   1.407       .  A
C581        H585   1.084       .  S
C582        O586   1.370       .  S
O584        H588   0.992       .  S
O586        H587   0.992       .  S
C589        C590   1.401       .  A
C589        C594   1.405       .  A
C590        C591   1.396       .  A
C590        H595   1.081       .  S
C591        C592   1.404   1_554  A
C591        O596   1.372       .  S
C592        C593   1.400       .  A
C593        C594   1.392   1_556  A
C593        H597   1.084       .  S
C594        O598   1.370   1_554  S
O596        H600   0.992       .  S
O598        H599   0.991       .  S
C601        C602   1.399       .  A
C601        C606   1.405       .  A
C602        C603   1.398       .  A
C602        H607   1.082       .  S
C603        C604   1.409       .  A
C603        O608   1.370       .  S
C604        C605   1.401       .  A
C605        C606   1.400       .  A
C605        H609   1.083       .  S
C606        O610   1.371       .  S
O608        H612   0.992       .  S
O610        H611   0.992       .  S
C613        C614   1.397       .  A
C613        C618   1.409       .  A
C614        C615   1.396       .  A
C614        H619   1.084       .  S
C615        C616   1.415       .  A
C615        O620   1.372       .  S
C616        C617   1.408       .  A
C617        C618   1.410       .  A
C617        H621   1.083       .  S
C618        O622   1.371       .  S
O620        H624   0.992       .  S
O622        H623   0.992       .  S
C625        C626   1.405       .  A
C625        C630   1.405   1_556  A
C626        C627   1.412   1_556  A
C626        H631   1.083       .  S
C627        C628   1.409       .  A
C627        O632   1.372       .  S
C628        C629   1.400       .  A
C629        C630   1.396       .  A
C629        H633   1.084       .  S
C630        O634   1.368       .  S
O632        H636   0.990   1_554  S
O634        H635   0.991       .  S
C637        C638   1.399   1_556  A
C637        C642   1.405       .  A
C638        C639   1.395       .  A
C638        H643   1.079       .  S
C639        C640   1.408       .  A
C639        O644   1.372       .  S
C640        C641   1.401   1_554  A
C641        C642   1.396       .  A
C641        H645   1.081       .  S
C642        O646   1.370       .  S
O644        H648   0.992       .  S
O646        H647   0.992       .  S
C649        C650   1.403       .  A
C649        C654   1.401       .  A
C650        C651   1.405       .  A
C650        H655   1.082       .  S
C651        C652   1.408       .  A
C651        O656   1.371       .  S
C652        C653   1.405       .  A
C653        C654   1.396       .  A
C653        H657   1.079       .  S
C654        O658   1.372       .  S
O656        H660   0.991       .  S
O658        H659   0.991       .  S
C661        C662   1.405       .  A
C661        C666   1.409       .  A
C662        C663   1.406       .  A
C662        H667   1.084       .  S
C663        C664   1.405       .  A
C663        O668   1.373       .  S
C664        C665   1.404       .  A
C665        C666   1.404       .  A
C665        H669   1.083       .  S
C666        O670   1.371       .  S
O668        H672   0.991       .  S
O670        H671   0.991       .  S
C673        C674   1.401       .  A
C673        C678   1.408       .  A
C674        C675   1.401   1_655  A
C674        H679   1.084       .  S
C675        C676   1.411       .  A
C675        O680   1.372       .  S
C676        C677   1.402       .  A
C677        C678   1.404   1_455  A
C677        H681   1.084       .  S
C678        O682   1.372       .  S
O680        H684   0.991       .  S
O682        H683   0.993       .  S
C685        C686   1.403       .  A
C685        C690   1.408       .  A
C686        C687   1.397   1_565  A
C686        H691   1.084       .  S
C687        C688   1.404       .  A
C687        O692   1.373       .  S
C688        C689   1.402       .  A
C689        C690   1.401   1_545  A
C689        H693   1.084       .  S
C690        O694   1.372       .  S
O692        H696   0.992       .  S
O694        H695   0.992       .  S
C697        C698   1.413       .  A
C697        C702   1.414       .  A
C698        C699   1.412       .  A
C698        H703   1.083       .  S
C699        C700   1.407       .  A
C699        O704   1.371       .  S
C700        C701   1.399       .  A
C701        C702   1.388       .  A
C701        H705   1.083       .  S
C702        O706   1.372       .  S
O704        H708   0.992       .  S
O706        H707   0.992       .  S
C709        C710   1.403       .  A
C709        C714   1.405       .  A
C710        C711   1.402   1_655  A
C710        H715   1.084       .  S
C711        C712   1.407       .  A
C711        O716   1.371       .  S
C712        C713   1.403       .  A
C713        C714   1.400   1_455  A
C713        H717   1.084       .  S
C714        O718   1.372       .  S
O716        H720   0.991       .  S
O718        H719   0.991       .  S
C721        C722   1.401       .  A
C721        C726   1.405   1_556  A
C722        C723   1.401   1_556  A
C722        H727   1.084       .  S
C723        C724   1.408       .  A
C723        O728   1.373   1_554  S
C724        C725   1.402       .  A
C725        C726   1.402       .  A
C725        H729   1.084       .  S
C726        O730   1.371       .  S
O728        H732   0.992       .  S
O730        H731   0.991       .  S
C733        C734   1.402       .  A
C733        C738   1.409       .  A
C734        C735   1.401   1_565  A
C734        H739   1.084       .  S
C735        C736   1.407       .  A
C735        O740   1.373       .  S
C736        C737   1.401       .  A
C737        C738   1.401   1_545  A
C737        H741   1.084       .  S
C738        O742   1.372       .  S
O740        H744   0.992       .  S
O742        H743   0.992       .  S
C745        C746   1.400       .  A
C745        C750   1.409   1_556  A
C746        C747   1.397   1_556  A
C746        H751   1.084       .  S
C747        C748   1.407       .  A
C747        O752   1.371       .  S
C748        C749   1.403       .  A
C749        C750   1.406       .  A
C749        H753   1.084       .  S
C750        O754   1.372       .  S
O752        H756   0.991       .  S
O754        H755   0.991       .  S
C757        C758   1.400       .  A
C757        C762   1.408       .  A
C758        C759   1.402   1_554  A
C758        H763   1.084   1_554  S
C759        C760   1.414       .  A
C759        O764   1.370       .  S
C760        C761   1.402   1_556  A
C761        C762   1.395       .  A
C761        H765   1.083       .  S
C762        O766   1.373       .  S
O764        H768   0.991       .  S
O766        H767   0.992       .  S
C769        C770   1.402       .  A
C769        C774   1.406       .  A
C770        C771   1.401       .  A
C770        H775   1.084       .  S
C771        C772   1.408       .  A
C771        O776   1.370       .  S
C772        C773   1.399       .  A
C773        C774   1.396       .  A
C773        H777   1.084       .  S
C774        O778   1.370       .  S
O776        H780   0.991       .  S
O778        H779   0.992       .  S
C781        C782   1.406       .  A
C781        C786   1.409       .  A
C782        C783   1.398       .  A
C782        H787   1.084       .  S
C783        C784   1.405       .  A
C783        O788   1.372       .  S
C784        C785   1.404       .  A
C785        C786   1.406       .  A
C785        H789   1.084       .  S
C786        O790   1.372       .  S
O788        H792   0.991       .  S
O790        H791   0.993       .  S
C793        C794   1.403       .  A
C793        C798   1.406       .  A
C794        C795   1.400       .  A
C794        H799   1.084       .  S
C795        C796   1.408   1_554  A
C795        O800   1.373       .  S
C796        C797   1.404       .  A
C797        C798   1.398   1_556  A
C797        H801   1.084       .  S
C798        O802   1.371   1_554  S
O800        H804   0.991       .  S
O802        H803   0.991       .  S
C805        C806   1.403       .  A
C805        C810   1.413       .  A
C806        C807   1.393       .  A
C806        H811   1.083       .  S
C807        C808   1.404       .  A
C807        O812   1.370       .  S
C808        C809   1.403       .  A
C809        C810   1.408       .  A
C809        H813   1.084       .  S
C810        O814   1.371       .  S
O812        H816   0.992       .  S
O814        H815   0.991       .  S
C817        C818   1.402       .  A
C817        C822   1.406       .  A
C818        C819   1.400       .  A
C818        H823   1.083       .  S
C819        C820   1.409       .  A
C819        O824   1.373       .  S
C820        C821   1.408       .  A
C821        C822   1.406       .  A
C821        H825   1.084       .  S
C822        O826   1.371       .  S
O824        H828   0.992       .  S
O826        H827   0.991       .  S
C829        C830   1.405       .  A
C829        C834   1.409       .  A
C830        C831   1.402       .  A
C830        H835   1.084       .  S
C831        C832   1.406       .  A
C831        O836   1.372       .  S
C832        C833   1.405       .  A
C833        C834   1.406       .  A
C833        H837   1.084       .  S
C834        O838   1.372       .  S
O836        H840   0.991       .  S
O838        H839   0.992       .  S
C841        C842   1.404       .  A
C841        C846   1.407   1_554  A
C842        C843   1.397       .  A
C842        H847   1.082       .  S
C843        C844   1.405   1_554  A
C843        O848   1.371       .  S
C844        C845   1.405       .  A
C845        C846   1.402       .  A
C845        H849   1.084       .  S
C846        O850   1.372       .  S
O848        H852   0.992       .  S
O850        H851   0.992       .  S
C853        C854   1.402   1_556  A
C853        C858   1.405       .  A
C854        C855   1.399       .  A
C854        H859   1.084       .  S
C855        C856   1.406       .  A
C855        O860   1.370       .  S
C856        C857   1.402       .  A
C857        C858   1.401   1_554  A
C857        H861   1.084       .  S
C858        O862   1.372       .  S
O860        H864   0.991       .  S
O862        H863   0.992       .  S
C865        C866   1.401       .  A
C865        C870   1.404       .  A
C866        C867   1.404       .  A
C866        H871   1.084       .  S
C867        C868   1.412       .  A
C867        O872   1.371       .  S
C868        C869   1.404       .  A
C869        C870   1.397       .  A
C869        H873   1.084       .  S
C870        O874   1.371       .  S
O872        H876   0.992       .  S
O874        H875   0.991       .  S
C877        C878   1.402       .  A
C877        C882   1.410       .  A
C878        C879   1.401       .  A
C878        H883   1.084       .  S
C879        C880   1.409       .  A
C879        O884   1.370       .  S
C880        C881   1.405       .  A
C881        C882   1.408       .  A
C881        H885   1.084       .  S
C882        O886   1.370       .  S
O884        H888   0.992       .  S
O886        H887   0.991       .  S
C889        C890   1.404       .  A
C889        C894   1.408       .  A
C890        C891   1.397       .  A
C890        H895   1.084       .  S
C891        C892   1.410       .  A
C891        O896   1.372       .  S
C892        C893   1.409       .  A
C893        C894   1.401       .  A
C893        H897   1.083       .  S
C894        O898   1.372       .  S
O896        H900   0.992       .  S
O898        H899   0.992       .  S
C901        C902   1.409       .  A
C901        C906   1.411       .  A
C902        C903   1.400       .  A
C902        H907   1.083       .  S
C903        C904   1.406       .  A
C903        O908   1.372       .  S
C904        C905   1.403       .  A
C905        C906   1.397       .  A
C905        H909   1.084       .  S
C906        O910   1.372       .  S
O908        H912   0.993       .  S
O910        H911   0.991       .  S
C913        C914   1.406       .  A
C913        C918   1.408       .  A
C914        C915   1.408       .  A
C914        H919   1.084       .  S
C915        C916   1.409       .  A
C915        O920   1.371       .  S
C916        C917   1.403       .  A
C917        C918   1.403       .  A
C917        H921   1.084       .  S
C918        O922   1.372       .  S
O920        H924   0.992       .  S
O922        H923   0.992       .  S
C925        C926   1.405       .  A
C925        C930   1.406       .  A
C926        C927   1.398       .  A
C926        H931   1.084       .  S
C927        C928   1.412       .  A
C927        O932   1.372       .  S
C928        C929   1.406       .  A
C929        C930   1.398       .  A
C929        H933   1.083       .  S
C930        O934   1.371       .  S
O932        H936   0.992       .  S
O934        H935   0.992       .  S
C937        C938   1.401       .  A
C937        C942   1.403       .  A
C938        C939   1.396       .  A
C938        H943   1.083       .  S
C939        C940   1.406       .  A
C939        O944   1.370       .  S
C940        C941   1.401       .  A
C941        C942   1.392       .  A
C941        H945   1.084       .  S
C942        O946   1.370       .  S
O944        H948   0.991       .  S
O946        H947   0.993       .  S
C949        C950   1.394       .  A
C949        C954   1.405       .  A
C950        C951   1.394       .  A
C950        H955   1.080       .  S
C951        C952   1.408       .  A
C951        O956   1.368       .  S
C952        C953   1.404       .  A
C953        C954   1.401       .  A
C953        H957   1.083       .  S
C954        O958   1.370       .  S
O956        H960   0.992       .  S
O958        H959   0.992       .  S
C961        C962   1.408       .  A
C961        C966   1.411       .  A
C962        C963   1.401       .  A
C962        H967   1.083       .  S
C963        C964   1.409       .  A
C963        O968   1.372       .  S
C964        C965   1.406       .  A
C965        C966   1.399       .  A
C965        H969   1.084       .  S
C966        O970   1.372       .  S
O968        H972   0.992       .  S
O970        H971   0.991       .  S
C973        C974   1.402       .  A
C973        C978   1.411       .  A
C974        C975   1.392       .  A
C974        H979   1.084       .  S
C975        C976   1.403       .  A
C975        O980   1.370       .  S
C976        C977   1.399       .  A
C977        C978   1.399       .  A
C977        H981   1.083       .  S
C978        O982   1.370       .  S
O980        H984   0.991       .  S
O982        H983   0.992       .  S
C985        C986   1.398       .  A
C985        C990   1.405       .  A
C986        C987   1.394       .  A
C986        H991   1.083       .  S
C987        C988   1.413       .  A
C987        O992   1.371       .  S
C988        C989   1.406       .  A
C989        C990   1.403       .  A
C989        H993   1.083       .  S
C990        O994   1.371       .  S
O992        H996   0.991       .  S
O994        H995   0.992       .  S
C997        C998   1.405       .  A
C997       C1002   1.413       .  A
C998        C999   1.398       .  A
C998       H1003   1.083       .  S
C999       C1000   1.411       .  A
C999       O1004   1.372       .  S
C1000      C1001   1.403       .  A
C1001      C1002   1.399       .  A
C1001      H1005   1.084       .  S
C1002      O1006   1.372       .  S
O1004      H1008   0.992       .  S
O1006      H1007   0.992       .  S
C1009      C1010   1.401       .  A
C1009      C1014   1.409       .  A
C1010      C1011   1.401       .  A
C1010      H1015   1.084       .  S
C1011      C1012   1.408       .  A
C1011      O1016   1.372       .  S
C1012      C1013   1.405       .  A
C1013      C1014   1.406       .  A
C1013      H1017   1.084       .  S
C1014      O1018   1.371       .  S
O1016      H1020   0.992       .  S
O1018      H1019   0.991       .  S
C1021      C1022   1.396       .  A
C1021      C1026   1.407       .  A
C1022      C1023   1.393       .  A
C1022      H1027   1.084       .  S
C1023      C1024   1.413       .  A
C1023      O1028   1.370       .  S
C1024      C1025   1.407       .  A
C1025      C1026   1.410       .  A
C1025      H1029   1.083       .  S
C1026      O1030   1.372       .  S
O1028      H1032   0.991       .  S
O1030      H1031   0.991       .  S
C1033      C1034   1.405       .  A
C1033      C1038   1.409       .  A
C1034      C1035   1.396       .  A
C1034      H1039   1.084       .  S
C1035      C1036   1.402       .  A
C1035      O1040   1.368       .  S
C1036      C1037   1.405       .  A
C1037      C1038   1.409       .  A
C1037      H1041   1.082       .  S
C1038      O1042   1.371       .  S
O1040      H1044   0.992       .  S
O1042      H1043   0.992       .  S
C1045      C1046   1.405       .  A
C1045      C1050   1.410       .  A
C1046      C1047   1.400       .  A
C1046      H1051   1.084       .  S
C1047      C1048   1.412       .  A
C1047      O1052   1.372       .  S
C1048      C1049   1.407       .  A
C1049      C1050   1.399       .  A
C1049      H1053   1.083       .  S
C1050      O1054   1.372       .  S
O1052      H1056   0.992       .  S
O1054      H1055   0.992       .  S
C1057      C1058   1.404       .  A
C1057      C1062   1.409       .  A
C1058      C1059   1.399       .  A
C1058      H1063   1.084       .  S
C1059      C1060   1.407       .  A
C1059      O1064   1.372       .  S
C1060      C1061   1.406       .  A
C1061      C1062   1.409       .  A
C1061      H1065   1.083       .  S
C1062      O1066   1.371       .  S
O1064      H1068   0.991       .  S
O1066      H1067   0.992       .  S
C1069      C1070   1.399       .  A
C1069      C1074   1.406       .  A
C1070      C1071   1.394       .  A
C1070      H1075   1.084       .  S
C1071      C1072   1.407       .  A
C1071      O1076   1.370       .  S
C1072      C1073   1.401       .  A
C1073      C1074   1.394       .  A
C1073      H1077   1.084       .  S
C1074      O1078   1.372       .  S
O1076      H1080   0.992       .  S
O1078      H1079   0.992       .  S
C1081      C1082   1.405       .  A
C1081      C1086   1.402       .  A
C1082      C1083   1.405       .  A
C1082      H1087   1.083       .  S
C1083      C1084   1.408       .  A
C1083      O1088   1.370       .  S
C1084      C1085   1.405       .  A
C1085      C1086   1.394       .  A
C1085      H1089   1.083       .  S
C1086      O1090   1.371       .  S
O1088      H1092   0.991       .  S
O1090      H1091   0.992       .  S
C1093      C1094   1.404       .  A
C1093      C1098   1.410       .  A
C1094      C1095   1.402       .  A
C1094      H1099   1.083       .  S
C1095      C1096   1.407       .  A
C1095      O1100   1.370       .  S
C1096      C1097   1.399       .  A
C1097      C1098   1.399       .  A
C1097      H1101   1.083       .  S
C1098      O1102   1.370       .  S
O1100      H1104   0.992       .  S
O1102      H1103   0.991       .  S
C1105      C1106   1.403       .  A
C1105      C1110   1.411       .  A
C1106      C1107   1.402       .  A
C1106      H1111   1.084       .  S
C1107      C1108   1.415       .  A
C1107      O1112   1.372       .  S
C1108      C1109   1.405       .  A
C1109      C1110   1.399       .  A
C1109      H1113   1.083       .  S
C1110      O1114   1.372       .  S
O1112      H1116   0.991       .  S
O1114      H1115   0.992       .  S
C1117      C1118   1.406       .  A
C1117      C1122   1.409       .  A
C1118      C1119   1.402       .  A
C1118      H1123   1.084       .  S
C1119      C1120   1.406       .  A
C1119      O1124   1.373       .  S
C1120      C1121   1.404       .  A
C1121      C1122   1.407       .  A
C1121      H1125   1.084       .  S
C1122      O1126   1.371       .  S
O1124      H1128   0.992       .  S
O1126      H1127   0.991       .  S
C1129      C1130   1.404       .  A
C1129      C1134   1.408       .  A
C1130      C1131   1.397       .  A
C1130      H1135   1.084       .  S
C1131      C1132   1.412       .  A
C1131      O1136   1.372       .  S
C1132      C1133   1.407       .  A
C1133      C1134   1.398       .  A
C1133      H1137   1.083       .  S
C1134      O1138   1.372       .  S
O1136      H1140   0.991       .  S
O1138      H1139   0.992       .  S
C1141      C1142   1.399       .  A
C1141      C1146   1.408       .  A
C1142      C1143   1.399   1_565  A
C1142      H1147   1.084       .  S
C1143      C1144   1.409       .  A
C1143      O1148   1.373       .  S
C1144      C1145   1.403       .  A
C1145      C1146   1.404   1_545  A
C1145      H1149   1.084       .  S
C1146      O1150   1.371       .  S
O1148      H1152   0.992       .  S
O1150      H1151   0.991       .  S
C1153      C1154   1.402       .  A
C1153      C1158   1.408       .  A
C1154      C1155   1.398       .  A
C1154      H1159   1.081       .  S
C1155      C1156   1.404       .  A
C1155      O1160   1.370       .  S
C1156      C1157   1.404       .  A
C1157      C1158   1.406       .  A
C1157      H1161   1.082       .  S
C1158      O1162   1.371       .  S
O1160      H1164   0.991       .  S
O1162      H1163   0.992       .  S
C1165      C1166   1.400       .  A
C1165      C1170   1.411       .  A
C1166      C1167   1.399       .  A
C1166      H1171   1.084       .  S
C1167      C1168   1.416       .  A
C1167      O1172   1.372       .  S
C1168      C1169   1.405       .  A
C1169      C1170   1.400       .  A
C1169      H1173   1.083       .  S
C1170      O1174   1.372       .  S
O1172      H1176   0.992       .  S
O1174      H1175   0.992       .  S
C1177      C1178   1.403       .  A
C1177      C1182   1.405       .  A
C1178      C1179   1.400   1_455  A
C1178      H1183   1.084       .  S
C1179      C1180   1.407       .  A
C1179      O1184   1.372       .  S
C1180      C1181   1.404       .  A
C1181      C1182   1.401   1_655  A
C1181      H1185   1.084       .  S
C1182      O1186   1.372       .  S
O1184      H1188   0.991       .  S
O1186      H1187   0.992       .  S
C1189      C1190   1.403       .  A
C1189      C1194   1.404       .  A
C1190      C1191   1.409       .  A
C1190      H1195   1.084       .  S
C1191      C1192   1.413       .  A
C1191      O1196   1.372       .  S
C1192      C1193   1.403       .  A
C1193      C1194   1.392       .  A
C1193      H1197   1.082       .  S
C1194      O1198   1.371       .  S
O1196      H1200   0.991       .  S
O1198      H1199   0.992       .  S
C1201      C1202   1.399       .  A
C1201      C1206   1.404       .  A
C1202      C1203   1.397       .  A
C1202      H1207   1.083       .  S
C1203      C1204   1.409       .  A
C1203      O1208   1.370       .  S
C1204      C1205   1.408       .  A
C1205      C1206   1.403       .  A
C1205      H1209   1.083       .  S
C1206      O1210   1.370       .  S
O1208      H1212   0.992       .  S
O1210      H1211   0.991       .  S
C1213      C1214   1.403       .  A
C1213      C1218   1.413       .  A
C1214      C1215   1.396       .  A
C1214      H1219   1.083       .  S
C1215      C1216   1.411       .  A
C1215      O1220   1.372       .  S
C1216      C1217   1.403       .  A
C1217      C1218   1.397       .  A
C1217      H1221   1.084       .  S
C1218      O1222   1.372       .  S
O1220      H1224   0.992       .  S
O1222      H1223   0.992       .  S
C1225      C1226   1.403       .  A
C1225      C1230   1.406       .  A
C1226      C1227   1.401   1_565  A
C1226      H1231   1.084       .  S
C1227      C1228   1.408       .  A
C1227      O1232   1.372       .  S
C1228      C1229   1.403       .  A
C1229      C1230   1.402   1_545  A
C1229      H1233   1.084       .  S
C1230      O1234   1.372       .  S
O1232      H1236   0.991       .  S
O1234      H1235   0.992       .  S
C1237      C1238   1.400       .  A
C1237      C1242   1.409       .  A
C1238      C1239   1.402       .  A
C1238      H1243   1.084       .  S
C1239      C1240   1.412       .  A
C1239      O1244   1.370       .  S
C1240      C1241   1.401       .  A
C1241      C1242   1.394       .  A
C1241      H1245   1.084       .  S
C1242      O1246   1.372       .  S
O1244      H1248   0.992       .  S
O1246      H1247   0.991       .  S
C1249      C1250   1.401       .  A
C1249      C1254   1.405       .  A
C1250      C1251   1.397       .  A
C1250      H1255   1.084       .  S
C1251      C1252   1.406       .  A
C1251      O1256   1.371       .  S
C1252      C1253   1.402       .  A
C1253      C1254   1.401       .  A
C1253      H1257   1.084       .  S
C1254      O1258   1.370       .  S
O1256      H1260   0.991       .  S
O1258      H1259   0.991       .  S
C1261      C1262   1.401       .  A
C1261      C1266   1.413       .  A
C1262      C1263   1.396       .  A
C1262      H1267   1.084       .  S
C1263      C1264   1.414       .  A
C1263      O1268   1.372       .  S
C1264      C1265   1.404       .  A
C1265      C1266   1.402       .  A
C1265      H1269   1.084       .  S
C1266      O1270   1.372       .  S
O1268      H1272   0.992       .  S
O1270      H1271   0.992       .  S
C1273      C1274   1.405       .  A
C1273      C1278   1.406       .  A
C1274      C1275   1.397   1_655  A
C1274      H1279   1.084       .  S
C1275      C1276   1.403       .  A
C1275      O1280   1.373       .  S
C1276      C1277   1.403       .  A
C1277      C1278   1.402   1_455  A
C1277      H1281   1.084       .  S
C1278      O1282   1.371       .  S
O1280      H1284   0.992       .  S
O1282      H1283   0.992       .  S
C1285      C1286   1.403       .  A
C1285      C1290   1.406       .  A
C1286      C1287   1.404       .  A
C1286      H1291   1.084       .  S
C1287      C1288   1.407       .  A
C1287      O1292   1.371       .  S
C1288      C1289   1.404       .  A
C1289      C1290   1.401       .  A
C1289      H1293   1.084       .  S
C1290      O1294   1.372       .  S
O1292      H1296   0.992       .  S
O1294      H1295   0.991       .  S
C1297      C1298   1.403       .  A
C1297      C1302   1.406       .  A
C1298      C1299   1.398       .  A
C1298      H1303   1.080       .  S
C1299      C1300   1.406       .  A
C1299      O1304   1.371       .  S
C1300      C1301   1.405       .  A
C1301      C1302   1.401       .  A
C1301      H1305   1.084       .  S
C1302      O1306   1.372       .  S
O1304      H1308   0.991       .  S
O1306      H1307   0.992       .  S
C1309      C1310   1.402       .  A
C1309      C1314   1.406       .  A
C1310      C1311   1.399       .  A
C1310      H1315   1.083       .  S
C1311      C1312   1.406       .  A
C1311      O1316   1.370       .  S
C1312      C1313   1.399       .  A
C1313      C1314   1.396       .  A
C1313      H1317   1.083       .  S
C1314      O1318   1.370       .  S
O1316      H1320   0.992       .  S
O1318      H1319   0.991       .  S
C1321      C1322   1.402       .  A
C1321      C1326   1.415       .  A
C1322      C1323   1.400       .  A
C1322      H1327   1.084       .  S
C1323      C1324   1.414       .  A
C1323      O1328   1.372       .  S
C1324      C1325   1.402       .  A
C1325      C1326   1.400       .  A
C1325      H1329   1.084       .  S
C1326      O1330   1.372       .  S
O1328      H1332   0.992       .  S
O1330      H1331   0.992       .  S
C1333      C1334   1.401       .  A
C1333      C1338   1.408       .  A
C1334      C1335   1.401       .  A
C1334      H1339   1.084       .  S
C1335      C1336   1.411       .  A
C1335      O1340   1.373       .  S
C1336      C1337   1.404       .  A
C1337      C1338   1.406       .  A
C1337      H1341   1.084       .  S
C1338      O1342   1.371       .  S
O1340      H1344   0.992       .  S
O1342      H1343   0.991       .  S
C1345      C1346   1.401       .  A
C1345      C1350   1.411       .  A
C1346      C1347   1.396       .  A
C1346      H1351   1.084       .  S
C1347      C1348   1.407       .  A
C1347      O1352   1.371       .  S
C1348      C1349   1.400       .  A
C1349      C1350   1.400       .  A
C1349      H1353   1.084       .  S
C1350      O1354   1.370       .  S
O1352      H1356   0.992       .  S
O1354      H1355   0.992       .  S
C1357      C1358   1.404       .  A
C1357      C1362   1.407       .  A
C1358      C1359   1.401       .  A
C1358      H1363   1.084       .  S
C1359      C1360   1.405       .  A
C1359      O1364   1.371       .  S
C1360      C1361   1.403       .  A
C1361      C1362   1.402       .  A
C1361      H1365   1.084       .  S
C1362      O1366   1.372       .  S
O1364      H1368   0.991       .  S
O1366      H1367   0.992       .  S
C1369      C1370   1.402       .  A
C1369      C1374   1.416       .  A
C1370      C1371   1.389       .  A
C1370      H1375   1.082       .  S
C1371      C1372   1.407       .  A
C1371      O1376   1.371       .  S
C1372      C1373   1.405       .  A
C1373      C1374   1.412       .  A
C1373      H1377   1.083       .  S
C1374      O1378   1.371       .  S
O1376      H1380   0.992       .  S
O1378      H1379   0.992       .  S
C1381      C1382   1.401       .  A
C1381      C1386   1.407       .  A
C1382      C1383   1.399       .  A
C1382      H1387   1.083       .  S
C1383      C1384   1.412       .  A
C1383      O1388   1.373       .  S
C1384      C1385   1.409       .  A
C1385      C1386   1.409       .  A
C1385      H1389   1.083       .  S
C1386      O1390   1.370       .  S
O1388      H1392   0.992       .  S
O1390      H1391   0.991       .  S
