geometry optimzed in LAMMPS
_audit_creation_date              2020-12-01 
_audit_creation_method            'lammps2cif' 
_symmetry_space_group_name_H-M    'P1' 
_symmetry_Int_Tables_number       1 
_symmetry_cell_setting            triclinic 
loop_ 
_symmetry_equiv_pos_as_xyz 
  x,y,z 
_cell_length_a                    41.023421 
_cell_length_b                    41.03032686476611 
_cell_length_c                    42.96686721531746 
_cell_angle_alpha                 89.97788078993652 
_cell_angle_beta                  90.0134472745894 
_cell_angle_gamma                 89.99846284314557 
loop_ 
_atom_site_label 
_atom_site_type_symbol 
_atom_site_fract_x 
_atom_site_fract_y 
_atom_site_fract_z 
_atom_site_charge 
N1          N  0.99893985  0.49640696  0.29933857    -0.36100
N2          N  0.03756221  0.46470641  0.24995066    -0.56700
N3          N  0.00282971  0.50433583  0.20270018    -0.36100
N4          N  0.96403586  0.53586942  0.25209532    -0.56700
C5          C  0.01894687  0.47779431  0.31732569     0.27400
C6          C  0.98032539  0.51509097  0.31853077     0.27500
C7          C  0.02021557  0.48433104  0.18362842     0.27400
C8          C  0.98178166  0.52187733  0.18476617     0.27400
C9          C  0.05145075  0.44988643  0.27498300     0.36100
C10         C  0.05227180  0.45276663  0.22401131     0.36100
C11         C  0.95026707  0.54869098  0.27815963     0.36100
C12         C  0.95110428  0.55167467  0.22712766     0.36100
C13         C  0.01228303  0.48425842  0.34838019    -0.21400
C14         C  0.98814801  0.50756737  0.34913416    -0.21400
C15         C  0.01057056  0.48993075  0.15312999    -0.21400
C16         C  0.98654697  0.51338839  0.15384204    -0.21400
C17         C  0.07508378  0.42823947  0.26475681    -0.22500
C18         C  0.07558151  0.43002185  0.23271639    -0.22500
C19         C  0.92828651  0.57275795  0.26955293    -0.22500
C20         C  0.92880193  0.57461527  0.23749618    -0.22500
C21         C  0.04350891  0.45550624  0.30697853    -0.17800
C22         C  0.95707011  0.53942326  0.30967423    -0.17800
C23         C  0.95838450  0.54545111  0.19506001    -0.17800
C24         C  0.04464641  0.46116091  0.19250441    -0.17800
H25         H  0.02392081  0.47366993  0.36860228     0.15100
H26         H  0.97793875  0.51813888  0.37004110     0.15100
H27         H  0.01969309  0.47816360  0.13234680     0.15100
H28         H  0.97385345  0.52289186  0.13370749     0.15100
H29         H  0.09042379  0.41269982  0.27889937     0.13400
H30         H  0.09131165  0.41600976  0.21756274     0.13400
H31         H  0.91334793  0.58752535  0.28478081     0.13400
H32         H  0.91430186  0.59101317  0.22343147     0.13400
H33         H  0.99751078  0.49588216  0.27543047     0.26600
H34         H  0.00661856  0.50733374  0.22626070     0.26600
N35         N  0.96036945  0.20541244  0.42885800    -0.26800
N36         N  0.95578476  0.17881635  0.44555065    -0.34700
C37         C  0.97794111  0.17778173  0.46840071     0.01500
C38         C  0.99683850  0.20558834  0.46679398     0.07500
C39         C  0.98552512  0.22229053  0.44095358    -0.05600
H40         H  0.98047855  0.15752701  0.48406755     0.08200
H41         H  0.99476143  0.24504527  0.43176717     0.09400
Cu42       Cu  0.91724198  0.14703176  0.43968009     0.44200
Cu43       Cu  0.93164136  0.21564473  0.39071065     0.42000
Cu44       Cu  0.85279356  0.17064143  0.39031229     0.43900
N45         N  0.87100595  0.12745338  0.44304868    -0.34200
N46         N  0.84594399  0.13760875  0.42643800    -0.28500
C47         C  0.81862507  0.12325910  0.43739094    -0.04600
C48         C  0.82713337  0.10358621  0.46241334     0.07700
C49         C  0.86062748  0.10622583  0.46456090     0.01500
H50         H  0.79436136  0.12733049  0.42830909     0.09100
H51         H  0.87670389  0.09333672  0.47999643     0.08200
N52         N  0.86953082  0.20141860  0.35525388    -0.35700
N53         N  0.89782613  0.21694932  0.35515231    -0.27800
C54         C  0.89892161  0.23710025  0.33052302    -0.03100
C55         C  0.86993432  0.23430081  0.31444275     0.05500
C56         C  0.85193319  0.21153211  0.33074633     0.03600
H57         H  0.91772702  0.25515772  0.32672419     0.08700
H58         H  0.82662725  0.20529503  0.32688825     0.07600
N59         N  0.95204030  0.21067406  0.06545607    -0.26800
N60         N  0.95411801  0.17951745  0.05794907    -0.34700
C61         C  0.98197374  0.17500241  0.04201467     0.01500
C62         C  0.99686750  0.20506518  0.03817168     0.07500
C63         C  0.97769896  0.22691671  0.05394374    -0.05600
H64         H  0.99006653  0.15179164  0.03302686     0.08200
H65         H  0.98119602  0.25299530  0.05561205     0.09400
Cu66       Cu  0.91486179  0.14733852  0.06255401     0.44200
Cu67       Cu  0.91399726  0.23066452  0.08907512     0.42000
Cu68       Cu  0.84007323  0.18650552  0.09044695     0.43900
N69         N  0.86770189  0.12945248  0.05543169    -0.34200
N70         N  0.84090950  0.14535853  0.06336258    -0.28500
C71         C  0.81491282  0.13086946  0.05036956    -0.04600
C72         C  0.82577887  0.10472659  0.03326693     0.07700
C73         C  0.85917584  0.10376390  0.03779736     0.01500
H74         H  0.79004037  0.13937255  0.05247132     0.09100
H75         H  0.87618153  0.08604959  0.02878983     0.08200
N76         N  0.84840595  0.22650632  0.11794073    -0.35700
N77         N  0.87598177  0.24303617  0.11706073    -0.27800
C78         C  0.87615337  0.26534478  0.13980278    -0.03100
C79         C  0.84715592  0.26261270  0.15555729     0.05500
C80         C  0.83001429  0.23786028  0.14132503     0.03600
H81         H  0.89659425  0.28086538  0.14557432     0.08700
H82         H  0.80693719  0.22759627  0.14857253     0.07600
C83         C  0.05784729  0.22280091  0.03314245     0.45900
H84         H  0.05765830  0.22274913  0.05901427    -0.03100
C85         C  0.05790970  0.22332194  0.47277837     0.46000
H86         H  0.05827560  0.22338905  0.44690607    -0.03100
C87         C  0.08146932  0.19788753  0.01899668    -0.16800
C88         C  0.02500901  0.21352014  0.01862227    -0.16500
C89         C  0.06736702  0.25592437  0.01890168    -0.16900
C90         C  0.08137945  0.19827791  0.48719311    -0.16900
C91         C  0.02479086  0.21437614  0.48678349    -0.16500
C92         C  0.06721414  0.25627143  0.48723269    -0.16800
N93         N  0.81602393  0.30399512  0.29648357    -0.36100
N94         N  0.77492974  0.34833983  0.26065223    -0.56700
N95         N  0.80068158  0.31908514  0.20542327    -0.36100
N96         N  0.84367724  0.27667343  0.24121945    -0.56700
C97         C  0.80575586  0.32457341  0.31886364     0.27400
C98         C  0.84066272  0.28633320  0.30873153     0.27500
C99         C  0.78373138  0.34419662  0.19313286     0.27400
C100        C  0.82050305  0.30768850  0.18290897     0.27400
C101        C  0.76215156  0.35297613  0.28916170     0.36100
C102        C  0.75278601  0.35980104  0.24017250     0.36100
C103        C  0.85533585  0.25474277  0.26181162     0.36100
C104        C  0.84768371  0.26343185  0.21282177     0.36100
C105        C  0.82421712  0.32021455  0.34558291    -0.21400
C106        C  0.84618488  0.29595029  0.33923561    -0.21400
C107        C  0.79323145  0.34905277  0.16248128    -0.21400
C108        C  0.81654500  0.32601912  0.15605988    -0.21400
C109        C  0.73219556  0.36848708  0.28692270    -0.22500
C110        C  0.72620244  0.37275372  0.25571187    -0.22500
C111        C  0.86791674  0.22789243  0.24645796    -0.22500
C112        C  0.86311153  0.23342934  0.21525953    -0.22500
C113        C  0.77770057  0.34413889  0.31709862    -0.17800
C114        C  0.85558003  0.25941983  0.29419529    -0.17800
C115        C  0.83860607  0.27866190  0.18475984    -0.17800
C116        C  0.75714539  0.35969793  0.20772865    -0.17800
H117        H  0.82137235  0.33242939  0.36774172     0.15100
H118        H  0.86355043  0.28603209  0.35562584     0.15100
H119        H  0.78366721  0.36650932  0.14599067     0.15100
H120        H  0.82825131  0.32232385  0.13376451     0.15100
H121        H  0.71626168  0.37573694  0.30576355     0.13400
H122        H  0.70483637  0.38408404  0.24563517     0.13400
H123        H  0.87930705  0.20662259  0.25665323     0.13400
H124        H  0.87007560  0.21718748  0.19656722     0.13400
H125        H  0.80348822  0.29867650  0.27613358     0.26600
H126        H  0.79501185  0.30689622  0.22587711     0.26600
N127        N  0.71483762  0.45667075  0.44021260    -0.26800
N128        N  0.68336499  0.45641368  0.44676844    -0.34700
C129        C  0.67619071  0.48373494  0.46259366     0.01500
C130        C  0.70481104  0.50095460  0.46719964     0.07500
C131        C  0.72864951  0.48349097  0.45218612    -0.05600
H132        H  0.65205281  0.49011612  0.47047066     0.08200
H133        H  0.75437411  0.48918132  0.45101709     0.09400
Cu134      Cu  0.65364511  0.41561201  0.44046557     0.44200
Cu135      Cu  0.73790100  0.42079624  0.41597222     0.42000
Cu136      Cu  0.69997668  0.34308893  0.42231810     0.43900
N137        N  0.63704058  0.36814288  0.44803413    -0.34200
N138        N  0.65578392  0.34219456  0.44448948    -0.28500
C139        C  0.64087500  0.31599623  0.45661889    -0.04600
C140        C  0.61134460  0.32586620  0.46845890     0.07700
C141        C  0.60912631  0.35882362  0.46183925     0.01500
H142        H  0.65111361  0.29170211  0.45733338     0.09100
H143        H  0.58925281  0.37507885  0.46746567     0.08200
N144        N  0.73479362  0.35389563  0.38974927    -0.35700
N145        N  0.74828440  0.38296372  0.38697746    -0.27800
C146        C  0.76584865  0.38411587  0.36070580    -0.03100
C147        C  0.76307240  0.35424740  0.34650769     0.05500
C148        C  0.74353093  0.33548809  0.36540364     0.03600
H149        H  0.77870323  0.40533625  0.35217918     0.08700
H150        H  0.73508212  0.31092541  0.36107401     0.07600
N151        N  0.69908688  0.46436165  0.07456446    -0.26800
N152        N  0.67248868  0.46048558  0.05770780    -0.34700
C153        C  0.67150492  0.48389406  0.03591565     0.01500
C154        C  0.69946487  0.50265880  0.03835976     0.07500
C155        C  0.71605980  0.49003068  0.06363871    -0.05600
H156        H  0.65149627  0.48710966  0.02004201     0.08200
H157        H  0.73908112  0.49841520  0.07296175     0.09400
Cu158      Cu  0.64185426  0.42029644  0.06194470     0.44200
Cu159      Cu  0.70966445  0.43383824  0.11118405     0.42000
Cu160      Cu  0.66203497  0.35725089  0.11662427     0.43900
N161        N  0.62409549  0.37287532  0.05913661    -0.34200
N162        N  0.63241365  0.34888944  0.07804572    -0.28500
C163        C  0.62019658  0.32066127  0.06674298    -0.04600
C164        C  0.60397323  0.32728146  0.03907367     0.07700
C165        C  0.60623852  0.36075013  0.03571430     0.01500
H166        H  0.62373732  0.29697526  0.07729087     0.09100
H167        H  0.59537333  0.37565932  0.01796748     0.08200
N168        N  0.69550303  0.37370930  0.14957755    -0.35700
N169        N  0.71245740  0.40107244  0.14739749    -0.27800
C170        C  0.73469868  0.40206126  0.17030690    -0.03100
C171        C  0.73178325  0.37397263  0.18768804     0.05500
C172        C  0.70676553  0.35657254  0.17396189     0.03600
H173        H  0.75375095  0.42019509  0.17215270     0.08700
H174        H  0.69954316  0.33185755  0.17939584     0.07600
C175        C  0.71919719  0.56348290  0.03218014     0.45900
H176        H  0.71847687  0.56429465  0.05802774    -0.03100
C177        C  0.72043222  0.56256549  0.47148402     0.46000
H178        H  0.72102396  0.56192351  0.44562638    -0.03100
C179        C  0.69516856  0.58731980  0.01667526    -0.16800
C180        C  0.75300141  0.57166055  0.01846049    -0.16500
C181        C  0.70960773  0.53031666  0.01841972    -0.16900
C182        C  0.69557996  0.58697576  0.48470457    -0.16900
C183        C  0.75347538  0.57145454  0.48627568    -0.16500
C184        C  0.71038549  0.53007180  0.48632798    -0.16800
N185        N  0.17948037  0.41764610  0.06993815    -0.26800
N186        N  0.18417118  0.38769003  0.05949340    -0.34700
C187        C  0.20966329  0.38730813  0.03985335     0.01500
C188        C  0.22149565  0.41861530  0.03678165     0.07500
C189        C  0.20218838  0.43725510  0.05668978    -0.05600
H190        H  0.21860411  0.36567989  0.02836796     0.08200
H191        H  0.20403405  0.46323849  0.06056524     0.09400
Cu192      Cu  0.15236391  0.34939353  0.06686946     0.44200
Cu193      Cu  0.14042942  0.42855638  0.10076235     0.42000
Cu194      Cu  0.07432946  0.36663373  0.09973062     0.43900
N195        N  0.11242636  0.31954342  0.05999410    -0.34200
N196        N  0.08275663  0.32635843  0.07007739    -0.28500
C197        C  0.06182906  0.30445167  0.05752356    -0.04600
C198        C  0.07938094  0.28334092  0.03847815     0.07700
C199        C  0.11134770  0.29337719  0.04124031     0.01500
H200        H  0.03576308  0.30432701  0.06132868     0.09100
H201        H  0.13241066  0.28277394  0.03007097     0.08200
N202        N  0.07522744  0.40755145  0.12973251    -0.35700
N203        N  0.09882104  0.42969369  0.13033082    -0.27800
C204        C  0.09172927  0.45189331  0.15266935    -0.03100
C205        C  0.06243804  0.44345981  0.16687267     0.05500
C206        C  0.05278085  0.41525617  0.15158694     0.03600
H207        H  0.10679123  0.47273042  0.15823630     0.08700
H208        H  0.03093039  0.40128513  0.15611947     0.07600
N209        N  0.17770692  0.41773750  0.43234166    -0.26800
N210        N  0.18168336  0.38837124  0.44439075    -0.34700
C211        C  0.20713905  0.38836370  0.46403144     0.01500
C212        C  0.21999521  0.41936808  0.46535356     0.07500
C213        C  0.20111303  0.43740813  0.44444785    -0.05600
H214        H  0.21562451  0.36707808  0.47637062     0.08200
H215        H  0.20386224  0.46299724  0.43899209     0.09400
Cu216      Cu  0.14971855  0.35038557  0.43794708     0.44200
Cu217      Cu  0.13873776  0.42671814  0.40054456     0.42000
Cu218      Cu  0.07238793  0.36389807  0.40251214     0.43900
N219        N  0.11050902  0.32025081  0.44543700    -0.34200
N220        N  0.08094192  0.32550093  0.43431157    -0.28500
C221        C  0.06053976  0.30334321  0.44722945    -0.04600
C222        C  0.07838448  0.28392986  0.46767491     0.07700
C223        C  0.10994500  0.29503106  0.46528765     0.01500
H224        H  0.03467553  0.30176792  0.44254415     0.09100
H225        H  0.13116180  0.28560328  0.47711727     0.08200
N226        N  0.07448725  0.40311832  0.37053384    -0.35700
N227        N  0.09796646  0.42539898  0.36959486    -0.27800
C228        C  0.09119321  0.44657156  0.34624569    -0.03100
C229        C  0.06234676  0.43728061  0.33164510     0.05500
C230        C  0.05247659  0.40976396  0.34794308     0.03600
H231        H  0.10580812  0.46772415  0.34067735     0.08700
H232        H  0.03042252  0.39591174  0.34400433     0.07600
N233        N  0.03799980  0.80385344  0.42345683    -0.26800
N234        N  0.04123550  0.83056785  0.44028899    -0.34700
C235        C  0.01756118  0.83112996  0.46183633     0.01500
C236        C  0.99951707  0.80265922  0.45962267     0.07500
C237        C  0.01267088  0.78630968  0.43441107    -0.05600
H238        H  0.01387753  0.85110811  0.47758316     0.08200
H239        H  0.00516709  0.76284193  0.42544015     0.09400
Cu240      Cu  0.08187068  0.86122179  0.43806211     0.44200
Cu241      Cu  0.06967104  0.79306477  0.38760480     0.42000
Cu242      Cu  0.14926107  0.83453100  0.39129996     0.43900
N243        N  0.12943869  0.87867405  0.44334430    -0.34200
N244        N  0.15473626  0.86749565  0.42759575    -0.28500
C245        C  0.18224371  0.88086513  0.43920343    -0.04600
C246        C  0.17384809  0.90110852  0.46372931     0.07700
C247        C  0.14011984  0.89972822  0.46500376     0.01500
H248        H  0.20658296  0.87578833  0.43080578     0.09100
H249        H  0.12419703  0.91339764  0.48001436     0.08200
N250        N  0.13467856  0.80307232  0.35604360    -0.35700
N251        N  0.10585639  0.78866328  0.35449364    -0.27800
C252        C  0.10552786  0.76808775  0.33017620    -0.03100
C253        C  0.13550765  0.76963158  0.31574345     0.05500
C254        C  0.15344769  0.79183146  0.33279695     0.03600
H255        H  0.08602011  0.75115566  0.32511750     0.08700
H256        H  0.17903803  0.79747934  0.32996090     0.07600
N257        N  0.04758041  0.79047794  0.06007828    -0.26800
N258        N  0.04683651  0.82160650  0.05226507    -0.34700
C259        C  0.01956504  0.82702161  0.03570132     0.01500
C260        C  0.00372756  0.79748858  0.03154008     0.07500
C261        C  0.02167568  0.77507794  0.04799500    -0.05600
H262        H  0.01201582  0.85070549  0.02754424     0.08200
H263        H  0.01678579  0.74928080  0.05035778     0.09400
Cu264      Cu  0.08655204  0.85292761  0.05860225     0.44200
Cu265      Cu  0.08330781  0.77025796  0.08666841     0.42000
Cu266      Cu  0.16008560  0.81057424  0.08328376     0.43900
N267        N  0.13387822  0.87132995  0.05382570    -0.34200
N268        N  0.16040906  0.85434056  0.06037286    -0.28500
C269        C  0.18675944  0.87004107  0.04948081    -0.04600
C270        C  0.17639846  0.89822654  0.03526081     0.07700
C271        C  0.14289671  0.89881425  0.03910832     0.01500
H272        H  0.21145522  0.86084369  0.05060478     0.09100
H273        H  0.12613911  0.91722357  0.03095212     0.08200
N274        N  0.14961935  0.77409542  0.11421014    -0.35700
N275        N  0.12081724  0.75987458  0.11603948    -0.27800
C276        C  0.11990861  0.74063792  0.14122999    -0.03100
C277        C  0.14968239  0.74306368  0.15567045     0.05500
C278        C  0.16811352  0.76417422  0.13808138     0.03600
H279        H  0.09896448  0.72671969  0.14880393     0.08700
H280        H  0.19251762  0.77275541  0.14298266     0.07600
C281        C  0.93933415  0.78124336  0.46755333     0.45900
H282        H  0.93762713  0.78218764  0.44174683    -0.03100
C283        C  0.94272528  0.77927311  0.02853346     0.46000
H284        H  0.94411149  0.77856172  0.05436162    -0.03100
C285        C  0.91557981  0.80456313  0.48394760    -0.16800
C286        C  0.93193059  0.74731204  0.48125914    -0.16500
C287        C  0.97278589  0.79136191  0.48035017    -0.16900
C288        C  0.91752306  0.80376728  0.01617759    -0.16900
C289        C  0.93373326  0.74622787  0.01374276    -0.16500
C290        C  0.97457790  0.79012748  0.01287628    -0.16800
N291        N  0.19984056  0.68722644  0.20254324    -0.36100
N292        N  0.15822586  0.72853758  0.24089889    -0.56700
N293        N  0.18793372  0.69967920  0.29432786    -0.36100
N294        N  0.22732072  0.65616020  0.25592687    -0.56700
C295        C  0.17849638  0.69843660  0.18125001     0.27400
C296        C  0.21638427  0.66254476  0.18908154     0.27500
C297        C  0.16416716  0.71749237  0.30786584     0.27400
C298        C  0.19831981  0.67796507  0.31568074     0.27400
C299        C  0.15262474  0.74208147  0.21287993     0.36100
C300        C  0.14800717  0.75034144  0.26225834     0.36100
C301        C  0.24882735  0.64537289  0.23454105     0.36100
C302        C  0.24064506  0.64999731  0.28393081     0.36100
C303        C  0.18120032  0.68046799  0.15402650    -0.21400
C304        C  0.20529327  0.65786466  0.15892596    -0.21400
C305        C  0.15924870  0.70686193  0.33813166    -0.21400
C306        C  0.18072565  0.68174118  0.34302101    -0.21400
C307        C  0.13774156  0.77222873  0.21634716    -0.22500
C308        C  0.13488525  0.77751444  0.24781530    -0.22500
C309        C  0.27559630  0.63139104  0.24892981    -0.22500
C310        C  0.27034620  0.63422765  0.28040877    -0.22500
C311        C  0.15992697  0.72702457  0.18432516    -0.17800
C312        C  0.24350424  0.64677105  0.20229178    -0.17800
C313        C  0.22591412  0.65788759  0.31251932    -0.17800
C314        C  0.14927838  0.74508327  0.29453855    -0.17800
H315        H  0.16806206  0.68410571  0.13245365     0.15100
H316        H  0.21414643  0.64061469  0.14188400     0.15100
H317        H  0.14253032  0.71664745  0.35520456     0.15100
H318        H  0.18388972  0.66856577  0.36464284     0.15100
H319        H  0.12992147  0.78871444  0.19814576     0.13400
H320        H  0.12432206  0.79877893  0.25878264     0.13400
H321        H  0.29653869  0.62023719  0.23792147     0.13400
H322        H  0.28661863  0.62590024  0.29857926     0.13400
H323        H  0.20644447  0.69915328  0.22289654     0.26600
H324        H  0.19992306  0.70547776  0.27379096     0.26600
N325        N  0.30148293  0.53835699  0.07093067    -0.26800
N326        N  0.32951836  0.54034939  0.05593693    -0.34700
C327        C  0.33113876  0.51582536  0.03533185     0.01500
C328        C  0.30207802  0.49867612  0.03621648     0.07500
C329        C  0.28416817  0.51310500  0.05965889    -0.05600
H330        H  0.35220509  0.51085042  0.02121367     0.08200
H331        H  0.26003945  0.50626160  0.06744786     0.09400
Cu332      Cu  0.36097992  0.58023036  0.05903205     0.44200
Cu333      Cu  0.28886355  0.57016323  0.10590327     0.42000
Cu334      Cu  0.33272936  0.64700153  0.10591563     0.43900
N335        N  0.37754009  0.62812118  0.05411371    -0.34200
N336        N  0.36560077  0.65298029  0.06997337    -0.28500
C337        C  0.37790901  0.68095440  0.05850034    -0.04600
C338        C  0.39825794  0.67339989  0.03392038     0.07700
C339        C  0.39813469  0.63963989  0.03242685     0.01500
H340        H  0.37190450  0.70504935  0.06696254     0.09100
H341        H  0.41221650  0.62431471  0.01719208     0.08200
N342        N  0.30098499  0.63250239  0.14061844    -0.35700
N343        N  0.28523744  0.60439948  0.14073029    -0.27800
C344        C  0.26469679  0.60366744  0.16504934    -0.03100
C345        C  0.26770040  0.63270702  0.18096706     0.05500
C346        C  0.29072541  0.65047967  0.16478628     0.03600
H347        H  0.24681051  0.58476696  0.16911884     0.08700
H348        H  0.29749447  0.67562147  0.16877509     0.07600
N349        N  0.29063962  0.54326945  0.43530878    -0.26800
N350        N  0.32110139  0.54460241  0.44518011    -0.34700
C351        C  0.32688049  0.51821583  0.46285817     0.01500
C352        C  0.29820364  0.50055237  0.46540278     0.07500
C353        C  0.27600261  0.51668970  0.44699754    -0.05600
H354        H  0.35029409  0.51251659  0.47277888     0.08200
H355        H  0.25070431  0.51031042  0.44331024     0.09400
Cu356      Cu  0.35080154  0.58566402  0.43989457     0.44200
Cu357      Cu  0.27012962  0.57806804  0.40763769     0.42000
Cu358      Cu  0.30662849  0.65743170  0.41559201     0.43900
N359        N  0.36804828  0.63331072  0.44516542    -0.34200
N360        N  0.35032186  0.65937595  0.43877614    -0.28500
C361        C  0.36545547  0.68609887  0.44962578    -0.04600
C362        C  0.39403829  0.67643688  0.46367691     0.07700
C363        C  0.39541659  0.64297000  0.45971553     0.01500
H364        H  0.35570834  0.71057736  0.44846957     0.09100
H365        H  0.41441193  0.62666329  0.46744512     0.08200
N366        N  0.27148594  0.64612199  0.38338431    -0.35700
N367        N  0.25898697  0.61669622  0.37971451    -0.27800
C368        C  0.24049336  0.61618939  0.35398876    -0.03100
C369        C  0.24153232  0.64685684  0.34116533     0.05500
C370        C  0.26110833  0.66535758  0.36023483     0.03600
H371        H  0.22797782  0.59497998  0.34499798     0.08700
H372        H  0.26842760  0.69043413  0.35679333     0.07600
C373        C  0.28143874  0.43912868  0.46997985     0.45900
H374        H  0.28097464  0.43970916  0.44411885    -0.03100
C375        C  0.28267086  0.43789271  0.03012816     0.46000
H376        H  0.28341475  0.43719752  0.05598334    -0.03100
C377        C  0.30661017  0.41507942  0.48334975    -0.16800
C378        C  0.29124566  0.47172150  0.48476373    -0.16500
C379        C  0.24841601  0.42978929  0.48469858    -0.16900
C380        C  0.30691814  0.41432158  0.01475947    -0.16900
C381        C  0.29190157  0.47111179  0.01627291    -0.16500
C382        C  0.24904730  0.42916896  0.01647398    -0.16800
N383        N  0.92088820  0.67688253  0.06735653    -0.26800
N384        N  0.89150384  0.68117232  0.05543673    -0.34700
C385        C  0.89190787  0.70600958  0.03513758     0.01500
C386        C  0.92319521  0.71800985  0.03316562     0.07500
C387        C  0.94098420  0.69945273  0.05449144    -0.05600
H388        H  0.87061418  0.71489260  0.02308446     0.08200
H389        H  0.96662030  0.70197182  0.05987619     0.09400
Cu390      Cu  0.85241090  0.65097300  0.06335644     0.44200
Cu391      Cu  0.92931721  0.63892613  0.10019469     0.42000
Cu392      Cu  0.86277061  0.57566511  0.10234077     0.43900
N393        N  0.81961698  0.61348112  0.05837301    -0.34200
N394        N  0.82336793  0.58435077  0.07099165    -0.28500
C395        C  0.79968812  0.56465133  0.05942436    -0.04600
C396        C  0.78078941  0.58248364  0.03837984     0.07700
C397        C  0.79401065  0.61334349  0.03892046     0.01500
H398        H  0.79694079  0.53911683  0.06512558     0.09100
H399        H  0.78594804  0.63429751  0.02581012     0.08200
N400        N  0.90392701  0.57676464  0.13281204    -0.35700
N401        N  0.92744936  0.59903464  0.13198569    -0.27800
C402        C  0.94961178  0.59186496  0.15437242    -0.03100
C403        C  0.93977524  0.56405489  0.17036411     0.05500
C404        C  0.91078979  0.55518580  0.15580246     0.03600
H405        H  0.97170401  0.60561011  0.15844782     0.08700
H406        H  0.89606402  0.53406161  0.16120288     0.07600
N407        N  0.91827371  0.67693180  0.42945464    -0.26800
N408        N  0.88856985  0.68241590  0.44014239    -0.34700
C409        C  0.88888457  0.70855957  0.45896666     0.01500
C410        C  0.92045069  0.71993928  0.46124472     0.07500
C411        C  0.93848532  0.69967998  0.44173041    -0.05600
H412        H  0.86763730  0.71805716  0.47069923     0.08200
H413        H  0.96448387  0.70076835  0.43765887     0.09400
Cu414      Cu  0.85018948  0.65031524  0.43466602     0.44200
Cu415      Cu  0.92771583  0.63650574  0.40018774     0.42000
Cu416      Cu  0.86618233  0.56972337  0.40654639     0.43900
N417        N  0.81968026  0.61145018  0.44394493    -0.34200
N418        N  0.82591207  0.58096949  0.43589937    -0.28500
C419        C  0.80313222  0.56162688  0.44943561    -0.04600
C420        C  0.78210190  0.58109408  0.46692817     0.07700
C421        C  0.79313999  0.61245080  0.46224354     0.01500
H422        H  0.80214339  0.53539447  0.44712080     0.09100
H423        H  0.78287675  0.63456771  0.47173544     0.08200
N424        N  0.90593191  0.56995854  0.37461193    -0.35700
N425        N  0.92735715  0.59408223  0.37204952    -0.27800
C426        C  0.94817360  0.58712955  0.34854243    -0.03100
C427        C  0.93974088  0.55733963  0.33548965     0.05500
C428        C  0.91298532  0.54712276  0.35285167     0.03600
H429        H  0.96820110  0.60260175  0.34148033     0.08700
H430        H  0.89947506  0.52472938  0.34967879     0.07600
N431        N  0.50094511  0.00139858  0.20105597    -0.36100
N432        N  0.46482561  0.96552441  0.24974586    -0.56700
N433        N  0.50016987  0.00257923  0.29789977    -0.36100
N434        N  0.53850333  0.03614157  0.24921293    -0.56700
C435        C  0.48416395  0.98004470  0.18288873     0.27400
C436        C  0.52249015  0.01761381  0.18261086     0.27500
C437        C  0.48351896  0.98127754  0.31627548     0.27400
C438        C  0.52238053  0.01831203  0.31599978     0.27400
C439        C  0.44924369  0.95357493  0.22422649     0.36100
C440        C  0.44864953  0.95442053  0.27527690     0.36100
C441        C  0.55133098  0.05088944  0.22363874     0.36100
C442        C  0.55108232  0.05133491  0.27463826     0.36100
C443        C  0.49498911  0.98313973  0.15242964    -0.21400
C444        C  0.51894365  0.00667325  0.15225420    -0.21400
C445        C  0.49505622  0.98395468  0.34652172    -0.21400
C446        C  0.51935920  0.00714845  0.34635618    -0.21400
C447        C  0.42321786  0.93444222  0.23373208    -0.22500
C448        C  0.42282882  0.93499384  0.26582625    -0.22500
C449        C  0.57265114  0.07521156  0.23298591    -0.22500
C450        C  0.57250575  0.07548620  0.26505873    -0.22500
C451        C  0.45853805  0.95862638  0.19246742    -0.17800
C452        C  0.54485997  0.04249311  0.19193195    -0.17800
C453        C  0.54463442  0.04321146  0.30641495    -0.17800
C454        C  0.45748039  0.96020661  0.30701937    -0.17800
H455        H  0.48643938  0.96994319  0.13221444     0.15100
H456        H  0.53223895  0.01476723  0.13191964     0.15100
H457        H  0.48678027  0.97066598  0.36679402     0.15100
H458        H  0.53316605  0.01491959  0.36648999     0.15100
H459        H  0.40628205  0.92128099  0.21907163     0.13400
H460        H  0.40558223  0.92228470  0.28052433     0.13400
H461        H  0.58693061  0.09113223  0.21823641     0.13400
H462        H  0.58671774  0.09161631  0.27965234     0.13400
H463        H  0.49626607  0.00633768  0.22413448     0.26600
H464        H  0.49474447  0.00813987  0.27505936     0.26600
N465        N  0.78928905  0.95509697  0.43382419    -0.26800
N466        N  0.82034371  0.95491214  0.44192492    -0.34700
C467        C  0.82637488  0.98181168  0.45878226     0.01500
C468        C  0.79728794  0.99842745  0.46269383     0.07500
C469        C  0.77450901  0.98132040  0.44592263    -0.05600
H470        H  0.85002752  0.98825005  0.46785569     0.08200
H471        H  0.74875946  0.98662412  0.44388032     0.09400
Cu472      Cu  0.85001779  0.91392428  0.43718478     0.44200
Cu473      Cu  0.76792503  0.91900555  0.40870626     0.42000
Cu474      Cu  0.80251788  0.84062740  0.42148568     0.43900
N475        N  0.86602992  0.86649730  0.44589664    -0.34200
N476        N  0.84715269  0.84050151  0.44321086    -0.28500
C477        C  0.86243975  0.81450922  0.45536966    -0.04600
C478        C  0.89233221  0.82457382  0.46624278     0.07700
C479        C  0.89426174  0.85743667  0.45926950     0.01500
H480        H  0.85228863  0.79020440  0.45664542     0.09100
H481        H  0.91415003  0.87382942  0.46451783     0.08200
N482        N  0.76868744  0.85012848  0.38740836    -0.35700
N483        N  0.75693275  0.87956946  0.38213578    -0.27800
C484        C  0.74007262  0.87958036  0.35545605    -0.03100
C485        C  0.74135858  0.84856552  0.34352976     0.05500
C486        C  0.75936872  0.83029030  0.36426091     0.03600
H487        H  0.72859104  0.90073333  0.34516151     0.08700
H488        H  0.76649795  0.80502406  0.36191448     0.07600
N489        N  0.80043804  0.96126712  0.07102062    -0.26800
N490        N  0.82743396  0.95755272  0.05473142    -0.34700
C491        C  0.82855646  0.98053347  0.03258445     0.01500
C492        C  0.80021576  0.99874700  0.03397654     0.07500
C493        C  0.78328623  0.98639857  0.05921803    -0.05600
H494        H  0.84913497  0.98403484  0.01751285     0.08200
H495        H  0.76008914  0.99481318  0.06810336     0.09400
Cu496      Cu  0.85876610  0.91819022  0.05969723     0.44200
Cu497      Cu  0.78990930  0.93147669  0.10830392     0.42000
Cu498      Cu  0.83695115  0.85430143  0.11211419     0.43900
N499        N  0.87747395  0.87128630  0.05661936    -0.34200
N500        N  0.86863602  0.84689099  0.07481452    -0.28500
C501        C  0.88200458  0.81907288  0.06380349    -0.04600
C502        C  0.89954639  0.82642593  0.03707581     0.07700
C503        C  0.89668748  0.85985339  0.03385743     0.01500
H504        H  0.87831441  0.79515933  0.07381844     0.09100
H505        H  0.90782408  0.87509736  0.01646800     0.08200
N506        N  0.80352427  0.87028213  0.14542102    -0.35700
N507        N  0.78716172  0.89807207  0.14409745    -0.27800
C508        C  0.76541587  0.89904372  0.16744799    -0.03100
C509        C  0.76795384  0.87046619  0.18418095     0.05500
C510        C  0.79228256  0.85281632  0.16961734     0.03600
H511        H  0.74688641  0.91760824  0.17006327     0.08700
H512        H  0.79919017  0.82789064  0.17452772     0.07600
C513        C  0.78111340  0.05950222  0.02833229     0.45900
H514        H  0.78142256  0.05975565  0.05420412    -0.03100
C515        C  0.78069823  0.05954450  0.46818785     0.46000
H516        H  0.78051170  0.05954284  0.44231209    -0.03100
C517        C  0.80543897  0.08349126  0.01369094    -0.16800
C518        C  0.79071403  0.02665684  0.01411090    -0.16500
C519        C  0.74775539  0.06831367  0.01433127    -0.16900
C520        C  0.80533159  0.08352650  0.48224857    -0.16900
C521        C  0.79036552  0.02670591  0.48251540    -0.16500
C522        C  0.74761172  0.06844012  0.48270689    -0.16800
N523        N  0.69643383  0.81879104  0.20299379    -0.36100
N524        N  0.72723343  0.84300069  0.25795346    -0.56700
N525        N  0.68706959  0.79795595  0.29411693    -0.36100
N526        N  0.65342381  0.77630952  0.23916132    -0.56700
C527        C  0.71492174  0.84273775  0.19057201     0.27400
C528        C  0.67487002  0.80960280  0.18101202     0.27500
C529        C  0.69904287  0.81713196  0.31689754     0.27400
C530        C  0.66257232  0.78039088  0.30674125     0.27400
C531        C  0.74822433  0.85572695  0.23703286     0.36100
C532        C  0.74080009  0.84742061  0.28617245     0.36100
C533        C  0.64667211  0.76534656  0.21031830     0.36100
C534        C  0.64261928  0.75324502  0.25906718     0.36100
C535        C  0.70472004  0.84902812  0.16036849    -0.21400
C536        C  0.67931092  0.82823635  0.15440974    -0.21400
C537        C  0.68191879  0.81174148  0.34427957    -0.21400
C538        C  0.65898395  0.78840690  0.33789089    -0.21400
C539        C  0.77486793  0.86922029  0.25205348    -0.22500
C540        C  0.77007418  0.86409850  0.28332809    -0.22500
C541        C  0.63035010  0.73576370  0.21193403    -0.22500
C542        C  0.62782186  0.72806194  0.24296197    -0.22500
C543        C  0.74279265  0.85642627  0.20469801    -0.17800
C544        C  0.65490030  0.78177599  0.18260196    -0.17800
C545        C  0.64542491  0.75525879  0.29160383    -0.17800
C546        C  0.72667171  0.83731512  0.31445617    -0.17800
H547        H  0.71496365  0.86605455  0.14385363     0.15100
H548        H  0.66654255  0.82606234  0.13245961     0.15100
H549        H  0.68596523  0.82295441  0.36674949     0.15100
H550        H  0.64192656  0.77821226  0.35444662     0.15100
H551        H  0.79543612  0.88159880  0.24160375     0.13400
H552        H  0.78641935  0.87148694  0.30180050     0.13400
H553        H  0.62153074  0.72109206  0.19277135     0.13400
H554        H  0.61662665  0.70638346  0.25254638     0.13400
H555        H  0.70183144  0.80570527  0.22296925     0.26600
H556        H  0.69796780  0.79364744  0.27272175     0.26600
N557        N  0.54701879  0.71829442  0.05689704    -0.26800
N558        N  0.54534752  0.68632805  0.05319468    -0.34700
C559        C  0.51715760  0.67933175  0.03865028     0.01500
C560        C  0.50171350  0.70841424  0.03151603     0.07500
C561        C  0.52087941  0.73247891  0.04399450    -0.05600
H562        H  0.50926399  0.65500093  0.03263469     0.08200
H563        H  0.51661854  0.75848980  0.04311402     0.09400
Cu564      Cu  0.58494583  0.65491416  0.06060316     0.44200
Cu565      Cu  0.58342287  0.74196683  0.07986761     0.42000
Cu566      Cu  0.65773664  0.69841683  0.08151827     0.43900
N567        N  0.63219158  0.63639155  0.05439496    -0.34200
N568        N  0.65855589  0.65416049  0.05938166    -0.28500
C569        C  0.68482726  0.63867313  0.04802490    -0.04600
C570        C  0.67468702  0.60966047  0.03521333     0.07700
C571        C  0.64130354  0.60849394  0.04034913     0.01500
H572        H  0.70935718  0.64836311  0.04816357     0.09100
H573        H  0.62467658  0.58938437  0.03347372     0.08200
N574        N  0.64720267  0.73583164  0.11147888    -0.35700
N575        N  0.61939898  0.75200633  0.11106564    -0.27800
C576        C  0.61765153  0.77134930  0.13618538    -0.03100
C577        C  0.64584295  0.76683242  0.15297518     0.05500
C578        C  0.66416249  0.74443813  0.13678871     0.03600
H579        H  0.59697322  0.78639018  0.14233071     0.08700
H580        H  0.68732652  0.73406297  0.14363163     0.07600
N581        N  0.53508666  0.70068927  0.42186725    -0.26800
N582        N  0.54122849  0.67664726  0.44141437    -0.34700
C583        C  0.51943390  0.67749362  0.46457752     0.01500
C584        C  0.49915488  0.70405786  0.46034747     0.07500
C585        C  0.50926844  0.71781156  0.43247533    -0.05600
H586        H  0.51829720  0.65934555  0.48252960     0.08200
H587        H  0.49916361  0.73913041  0.42121197     0.09400
Cu588      Cu  0.58185261  0.64660088  0.43943967     0.44200
Cu589      Cu  0.56419085  0.70838693  0.38319174     0.42000
Cu590      Cu  0.64603811  0.66862481  0.38932470     0.43900
N591        N  0.62872797  0.62828360  0.44429811    -0.34200
N592        N  0.65351419  0.63777075  0.42697225    -0.28500
C593        C  0.68114458  0.62431169  0.43825742    -0.04600
C594        C  0.67323408  0.60588157  0.46426800     0.07700
C595        C  0.63967634  0.60834224  0.46671265     0.01500
H596        H  0.70522222  0.62811863  0.42865055     0.09100
H597        H  0.62396892  0.59608288  0.48296173     0.08200
N598        N  0.62992075  0.69745028  0.35259968    -0.35700
N599        N  0.60078034  0.71111034  0.35004647    -0.27800
C600        C  0.60063156  0.73090519  0.32509036    -0.03100
C601        C  0.63100968  0.72966138  0.31131219     0.05500
C602        C  0.64890704  0.70832590  0.32939228     0.03600
H603        H  0.58116633  0.74772075  0.31953453     0.08700
H604        H  0.67480648  0.70367303  0.32766262     0.07600
C605        C  0.43974815  0.72212498  0.02781416     0.45900
H606        H  0.44053553  0.72189479  0.05367560    -0.03100
C607        C  0.43807037  0.72286637  0.46750024     0.46000
H608        H  0.43699733  0.72281684  0.44165111    -0.03100
C609        C  0.47247265  0.71388814  0.01254585    -0.16800
C610        C  0.41640463  0.69666292  0.01396204    -0.16500
C611        C  0.42933620  0.75521324  0.01406240    -0.16900
C612        C  0.47182158  0.71451215  0.48070974    -0.16900
C613        C  0.41559206  0.69731703  0.48252855    -0.16500
C614        C  0.42830540  0.75573738  0.48219067    -0.16800
N615        N  0.67923870  0.08187532  0.06842426    -0.26800
N616        N  0.68353857  0.11125656  0.05652619    -0.34700
C617        C  0.70834641  0.11077573  0.03617475     0.01500
C618        C  0.72023939  0.07942628  0.03427858     0.07500
C619        C  0.70168343  0.06170827  0.05557487    -0.05600
H620        H  0.71694956  0.13190845  0.02367596     0.08200
H621        H  0.70386916  0.03598653  0.06070075     0.09400
Cu622      Cu  0.65226311  0.14970184  0.06361987     0.44200
Cu623      Cu  0.64076864  0.07303931  0.10029521     0.42000
Cu624      Cu  0.57381128  0.13496955  0.09645328     0.43900
N625        N  0.61328772  0.18011965  0.05578009    -0.34200
N626        N  0.58335270  0.17452790  0.06581989    -0.28500
C627        C  0.56346176  0.19729610  0.05302462    -0.04600
C628        C  0.58202357  0.21749117  0.03381972     0.07700
C629        C  0.61344470  0.20608913  0.03679073     0.01500
H630        H  0.53747468  0.19885136  0.05702079     0.09100
H631        H  0.63507636  0.21588319  0.02594833     0.08200
N632        N  0.57524518  0.09511918  0.12815171    -0.35700
N633        N  0.59928010  0.07348726  0.12984045    -0.27800
C634        C  0.59253167  0.05212345  0.15298842    -0.03100
C635        C  0.56298698  0.06045186  0.16665857     0.05500
C636        C  0.55275535  0.08773060  0.15011759     0.03600
H637        H  0.60781266  0.03164008  0.15919025     0.08700
H638        H  0.53039273  0.10116627  0.15375846     0.07600
N639        N  0.58584694  0.17874439  0.42884669    -0.26800
N640        N  0.61533983  0.18276484  0.44060439    -0.34700
C641        C  0.61534062  0.20783465  0.46069429     0.01500
C642        C  0.58421985  0.22034779  0.46251521     0.07500
C643        C  0.56609653  0.20169573  0.44154402    -0.05600
H644        H  0.63657352  0.21602552  0.47331687     0.08200
H645        H  0.54033119  0.20406321  0.43668274     0.09400
Cu646      Cu  0.65324903  0.15078663  0.43364123     0.44200
Cu647      Cu  0.57638486  0.13969841  0.39745797     0.42000
Cu648      Cu  0.63855276  0.07276863  0.39974733     0.43900
N649        N  0.68348529  0.11156080  0.44090747    -0.34200
N650        N  0.67776017  0.08181725  0.43046242    -0.28500
C651        C  0.69994190  0.06146613  0.44342016    -0.04600
C652        C  0.71988984  0.07952513  0.46318248     0.07700
C653        C  0.70910035  0.11115365  0.46030502     0.01500
H654        H  0.70109685  0.03548083  0.43931380     0.09100
H655        H  0.71893203  0.13249788  0.47160635     0.08200
N656        N  0.59829769  0.07419539  0.36897594    -0.35700
N657        N  0.57633430  0.09796535  0.36790154    -0.27800
C658        C  0.55444598  0.09085738  0.34529740    -0.03100
C659        C  0.56284096  0.06140632  0.33143291     0.05500
C660        C  0.59073007  0.05162644  0.34718713     0.03600
H661        H  0.53362627  0.10586751  0.33952999     0.08700
H662        H  0.60441550  0.02947967  0.34321003     0.07600
N663        N  0.20974926  0.05072835  0.43849168    -0.26800
N664        N  0.17842200  0.04942992  0.44559870    -0.34700
C665        C  0.17305997  0.02187447  0.46181334     0.01500
C666        C  0.20271907  0.00631208  0.46625393     0.07500
C667        C  0.22522077  0.02485172  0.45056272    -0.05600
H668        H  0.14943409  0.01420732  0.47009105     0.08200
H669        H  0.25118273  0.02051854  0.44894306     0.09400
Cu670      Cu  0.14659759  0.08893439  0.43943760     0.44200
Cu671      Cu  0.23082166  0.08739555  0.41350778     0.42000
Cu672      Cu  0.18889192  0.16283590  0.41599938     0.43900
N673        N  0.12847440  0.13622304  0.44607538    -0.34200
N674        N  0.14576633  0.16276161  0.44033011    -0.28500
C675        C  0.13089423  0.18874965  0.45297665    -0.04600
C676        C  0.10293170  0.17817867  0.46752069     0.07700
C677        C  0.10148285  0.14496512  0.46181270     0.01500
H678        H  0.14038331  0.21335383  0.45256248     0.09100
H679        H  0.08280746  0.12815740  0.46932975     0.08200
N680        N  0.22645512  0.15352721  0.38566896    -0.35700
N681        N  0.24180355  0.12527179  0.38457310    -0.27800
C682        C  0.26188541  0.12485445  0.35995668    -0.01300
C683        C  0.25881520  0.15435690  0.34502922     0.05500
C684        C  0.23638739  0.17210165  0.36180949     0.03600
H685        H  0.27653583  0.10423962  0.35283784     0.08700
H686        H  0.22689102  0.19601048  0.35628191     0.07600
N687        N  0.19909422  0.04186010  0.07415250    -0.26800
N688        N  0.17215527  0.04485767  0.05762416    -0.34700
C689        C  0.17182453  0.02191650  0.03541715     0.01500
C690        C  0.20053546  0.00431472  0.03712538     0.07500
C691        C  0.21693104  0.01709090  0.06252806    -0.05600
H692        H  0.15165502  0.01814244  0.01986922     0.08200
H693        H  0.24034775  0.00938089  0.07148117     0.09400
Cu694      Cu  0.13999402  0.08346075  0.06237315     0.44200
Cu695      Cu  0.20896503  0.07278179  0.11100397     0.42000
Cu696      Cu  0.16033790  0.14829539  0.11551308     0.43900
N697        N  0.12151725  0.13032070  0.05913391    -0.34200
N698        N  0.12985683  0.15473782  0.07749334    -0.28500
C699        C  0.11685837  0.18249453  0.06615062    -0.04600
C700        C  0.10011948  0.17514149  0.03902974     0.07700
C701        C  0.10287520  0.14172497  0.03594891     0.01500
H702        H  0.12002271  0.20636067  0.07641956     0.09100
H703        H  0.09167301  0.12632365  0.01881126     0.08200
N704        N  0.19506461  0.13416036  0.14798171    -0.35700
N705        N  0.21231945  0.10694918  0.14631389    -0.27800
C706        C  0.23489758  0.10703322  0.16895230    -0.03100
C707        C  0.23192934  0.13569780  0.18549455     0.05500
C708        C  0.20648100  0.15232416  0.17163014     0.03600
H709        H  0.25393768  0.08896677  0.17139516     0.08700
H710        H  0.19868206  0.17695290  0.17667888     0.07600
C711        C  0.22045161  0.94514724  0.47027577     0.45900
H712        H  0.22051271  0.94579626  0.44441161    -0.03100
C713        C  0.22101488  0.94390242  0.03074082     0.46000
H714        H  0.22098664  0.94328751  0.05660681    -0.03100
C715        C  0.19610012  0.92050846  0.48384640    -0.16800
C716        C  0.25380977  0.93629893  0.48452231    -0.16500
C717        C  0.21029512  0.97750398  0.48536213    -0.16900
C718        C  0.19666666  0.91990099  0.01604603    -0.16900
C719        C  0.25435162  0.93556944  0.01626140    -0.16500
C720        C  0.21093528  0.97689898  0.01697819    -0.16800
N721        N  0.31677929  0.20124994  0.29646525    -0.36100
N722        N  0.27295085  0.16131574  0.25954582    -0.56700
N723        N  0.30395734  0.18652022  0.20517285    -0.36100
N724        N  0.34956437  0.22505780  0.24201079    -0.56700
C725        C  0.30425313  0.18165161  0.31864569     0.27400
C726        C  0.34214485  0.21724919  0.30934437     0.27500
C727        C  0.28541987  0.16268293  0.19263638     0.27400
C728        C  0.32648010  0.19474515  0.18372456     0.27400
C729        C  0.25901045  0.15764683  0.28769052     0.36100
C730        C  0.25065774  0.15172098  0.23836244     0.36100
C731        C  0.36082451  0.24706165  0.26269475     0.36100
C732        C  0.35553329  0.23754096  0.21359414     0.36100
C733        C  0.32215788  0.18488830  0.34587957    -0.21400
C734        C  0.34600279  0.20756647  0.34004583    -0.21400
C735        C  0.29657777  0.15549715  0.16292835    -0.21400
C736        C  0.32261635  0.17567700  0.15737372    -0.21400
C737        C  0.22790257  0.14481179  0.28450789    -0.22500
C738        C  0.22254178  0.14117802  0.25309439    -0.22500
C739        C  0.37509637  0.27315378  0.24743959    -0.22500
C740        C  0.37180503  0.26705681  0.21614011    -0.22500
C741        C  0.27472824  0.16438164  0.31611215    -0.17800
C742        C  0.35905828  0.24310993  0.29511743    -0.17800
C743        C  0.34684314  0.22220362  0.18552889    -0.17800
C744        C  0.25669050  0.15017721  0.20617192    -0.17800
H745        H  0.31765465  0.17319265  0.36804949     0.15100
H746        H  0.36350622  0.21657984  0.35679795     0.15100
H747        H  0.28654510  0.13837167  0.14640778     0.15100
H748        H  0.33623193  0.17718617  0.13584497     0.15100
H749        H  0.21091751  0.13864784  0.30285950     0.13400
H750        H  0.20074280  0.13143121  0.24238563     0.13400
H751        H  0.38653673  0.29432016  0.25776671     0.13400
H752        H  0.38010479  0.28267802  0.19744860     0.13400
H753        H  0.30548163  0.20741800  0.27567054     0.26600
H754        H  0.29813424  0.20017248  0.22475299     0.26600
N755        N  0.46750628  0.30262874  0.42542460    -0.26800
N756        N  0.46324673  0.32889098  0.44269142    -0.34700
C757        C  0.48610735  0.32937802  0.46500267     0.01500
C758        C  0.50480958  0.30141201  0.46257390     0.07500
C759        C  0.49285582  0.28539051  0.43667458    -0.05600
H760        H  0.48890468  0.34905585  0.48127062     0.08200
H761        H  0.50131458  0.26243768  0.42727466     0.09400
Cu762      Cu  0.42292631  0.35952445  0.43933651     0.44200
Cu763      Cu  0.43734918  0.29181728  0.38852566     0.42000
Cu764      Cu  0.35828351  0.33452150  0.38917256     0.43900
N765        N  0.37531833  0.37670854  0.44321344    -0.34200
N766        N  0.35085349  0.36613883  0.42599023    -0.28500
C767        C  0.32271465  0.37846922  0.43718109    -0.04600
C768        C  0.32985081  0.39728062  0.46304150     0.07700
C769        C  0.36350729  0.39634508  0.46548056     0.01500
H770        H  0.29879570  0.37340872  0.42773573     0.09100
H771        H  0.37863926  0.40929295  0.48173887     0.08200
N772        N  0.37376525  0.30265736  0.35484474    -0.35700
N773        N  0.40222977  0.28748756  0.35448495    -0.27800
C774        C  0.40270261  0.26615799  0.33078030    -0.03100
C775        C  0.37320347  0.26808787  0.31551860     0.05500
C776        C  0.35540924  0.29127158  0.33141271     0.03600
H777        H  0.42179626  0.24845085  0.32682762     0.08700
H778        H  0.32999953  0.29731095  0.32788868     0.07600
N779        N  0.45651776  0.28647552  0.06054675    -0.26800
N780        N  0.45726578  0.31803637  0.05438772    -0.34700
C781        C  0.48490394  0.32453305  0.03876796     0.01500
C782        C  0.50104852  0.29538875  0.03359565     0.07500
C783        C  0.48285817  0.27195738  0.04836954    -0.05600
H784        H  0.49226832  0.34859831  0.03145286     0.08200
H785        H  0.48779748  0.24607176  0.04936768     0.09400
Cu786      Cu  0.41721666  0.34892367  0.06068659     0.44200
Cu787      Cu  0.42036500  0.26407611  0.08498272     0.42000
Cu788      Cu  0.34442305  0.30572583  0.08402694     0.43900
N789        N  0.36983545  0.36654308  0.05403628    -0.34200
N790        N  0.34351961  0.34892139  0.05973254    -0.28500
C791        C  0.31726409  0.36386825  0.04762677    -0.04600
C792        C  0.32745643  0.39225633  0.03354086     0.07700
C793        C  0.36074108  0.39377865  0.03888483     0.01500
H794        H  0.29269518  0.35429913  0.04828935     0.09100
H795        H  0.37732478  0.41281797  0.03178490     0.08200
N796        N  0.35530554  0.26884957  0.11475545    -0.35700
N797        N  0.38364815  0.25361089  0.11526179    -0.27800
C798        C  0.38513434  0.23418373  0.14034217    -0.03100
C799        C  0.35620122  0.23753177  0.15615170     0.05500
C800        C  0.33772260  0.25944108  0.13944496     0.03600
H801        H  0.40605919  0.21976305  0.14707531     0.08700
H802        H  0.31395016  0.26891444  0.14551940     0.07600
C803        C  0.56239202  0.27883619  0.03014373     0.45900
H804        H  0.56114102  0.27774818  0.05596638    -0.03100
C805        C  0.56532715  0.28160202  0.46981827     0.46000
H806        H  0.56673585  0.28288967  0.44400888    -0.03100
C807        C  0.58695380  0.30405820  0.01792508    -0.16800
C808        C  0.57177062  0.24611989  0.01489783    -0.16500
C809        C  0.53026404  0.28920269  0.01478497    -0.16900
C810        C  0.58865519  0.30533643  0.48628518    -0.16900
C811        C  0.57339669  0.24766100  0.48299807    -0.16500
C812        C  0.53184330  0.29074764  0.48302644    -0.16800
N813        N  0.32534758  0.92183205  0.06753167    -0.26800
N814        N  0.31959560  0.89218788  0.05683180    -0.34700
C815        C  0.29354867  0.89270802  0.03789826     0.01500
C816        C  0.28233473  0.92430291  0.03564861     0.07500
C817        C  0.30273525  0.94221346  0.05520092    -0.05600
H818        H  0.28374312  0.87148111  0.02637247     0.08200
H819        H  0.30156145  0.96814891  0.05958449     0.09400
Cu820      Cu  0.35030609  0.85298072  0.06357451     0.44200
Cu821      Cu  0.36515499  0.93043831  0.09798337     0.42000
Cu822      Cu  0.42812575  0.86408066  0.09886423     0.43900
N823        N  0.38829947  0.82088626  0.05642091    -0.34200
N824        N  0.41805407  0.82505423  0.06754548    -0.28500
C825        C  0.43754540  0.80194764  0.05469650    -0.04600
C826        C  0.41900272  0.78300022  0.03428678     0.07700
C827        C  0.38789607  0.79549763  0.03668831     0.01500
H828        H  0.46338772  0.79957338  0.05917068     0.09100
H829        H  0.36633681  0.78697963  0.02481287     0.08200
N830        N  0.42773038  0.90503489  0.12948446    -0.35700
N831        N  0.40541164  0.92850351  0.12901551    -0.27800
C832        C  0.41250198  0.95037176  0.15161410    -0.03100
C833        C  0.44037358  0.94043512  0.16734005     0.05500
C834        C  0.44938635  0.91168955  0.15244861     0.03600
H835        H  0.39854885  0.97223820  0.15611370     0.08700
H836        H  0.47049123  0.89688817  0.15775038     0.07600
N837        N  0.41497411  0.82587547  0.42994311    -0.26800
N838        N  0.38546535  0.82119461  0.44144102    -0.34700
C839        C  0.38573708  0.79561323  0.46095647     0.01500
C840        C  0.41708937  0.78364407  0.46275208     0.07500
C841        C  0.43500482  0.80298879  0.44227377    -0.05600
H842        H  0.36450194  0.78659499  0.47303823     0.08200
H843        H  0.46078854  0.80100789  0.43735754     0.09400
Cu844      Cu  0.34725829  0.85302792  0.43507005     0.44200
Cu845      Cu  0.42441951  0.86516167  0.39902338     0.42000
Cu846      Cu  0.36235974  0.93134010  0.40039138     0.43900
N847        N  0.31765013  0.89275525  0.44256634    -0.34200
N848        N  0.32325978  0.92236588  0.43164354    -0.28500
C849        C  0.30115049  0.94286235  0.44456489    -0.04600
C850        C  0.28140940  0.92508679  0.46479685     0.07700
C851        C  0.29231898  0.89345444  0.46230674     0.01500
H852        H  0.29990629  0.96878526  0.44012063     0.09100
H853        H  0.28269475  0.87228115  0.47407509     0.08200
N854        N  0.40304170  0.93022660  0.36972778    -0.35700
N855        N  0.42507182  0.90651683  0.36917603    -0.27800
C856        C  0.44724083  0.91328583  0.34673169    -0.03100
C857        C  0.43899770  0.94247649  0.33227468     0.05500
C858        C  0.41088902  0.95248183  0.34765699     0.03600
H859        H  0.46809667  0.89815792  0.34139960     0.08700
H860        H  0.39719885  0.97451762  0.34315267     0.07600
N861        N  0.99927472  0.49735386  0.79934906    -0.36100
N862        N  0.03784751  0.46555720  0.75015914    -0.56700
N863        N  0.00042177  0.50201038  0.70253058    -0.36100
N864        N  0.96404315  0.53607678  0.75177473    -0.56700
C865        C  0.02098350  0.48068884  0.81727902     0.27400
C866        C  0.98226457  0.51781768  0.81822694     0.27500
C867        C  0.02232086  0.48651814  0.68391101     0.27400
C868        C  0.98366705  0.52382070  0.68476023     0.27400
C869        C  0.05013577  0.44932881  0.77515986     0.36100
C870        C  0.05036484  0.45137226  0.72419214     0.36100
C871        C  0.94847683  0.54710610  0.77766366     0.36100
C872        C  0.94871510  0.54919990  0.72660864     0.36100
C873        C  0.01713789  0.49027310  0.84801580    -0.21400
C874        C  0.99292722  0.51351978  0.84860874    -0.21400
C875        C  0.01905996  0.49838661  0.65383592    -0.21400
C876        C  0.99487963  0.52170786  0.65435981    -0.21400
C877        C  0.07096784  0.42498612  0.76493373    -0.22500
C878        C  0.07108691  0.42624073  0.73287813    -0.22500
C879        C  0.92331625  0.56768966  0.76879946    -0.22500
C880        C  0.92345397  0.56898999  0.73671908    -0.22500
C881        C  0.04375287  0.45655230  0.80713347    -0.17800
C882        C  0.95703361  0.53997685  0.80925621    -0.17800
C883        C  0.95779058  0.54482039  0.69468165    -0.17800
C884        C  0.04441861  0.46115791  0.69274218    -0.17800
H885        H  0.03044484  0.48152734  0.86810193     0.15100
H886        H  0.98426085  0.52590892  0.86923978     0.15100
H887        H  0.03258602  0.49093822  0.63342247     0.15100
H888        H  0.98644067  0.53537428  0.63438453     0.15100
H889        H  0.08474917  0.40806291  0.77909217     0.13400
H890        H  0.08504380  0.41048007  0.71770816     0.13400
H891        H  0.90661160  0.58060944  0.78388767     0.13400
H892        H  0.90693575  0.58316703  0.72248596     0.13400
H893        H  0.99469389  0.49335240  0.77611383     0.26600
H894        H  0.99544434  0.49611285  0.72531214     0.26600
N895        N  0.96037870  0.20511956  0.92884539    -0.26800
N896        N  0.95596164  0.17829240  0.94523494    -0.34700
C897        C  0.97821933  0.17709620  0.96800233     0.01500
C898        C  0.99694677  0.20505633  0.96666594     0.07500
C899        C  0.98546266  0.22199012  0.94105297    -0.05600
H900        H  0.98095282  0.15663758  0.98338430     0.08200
H901        H  0.99454207  0.24490220  0.93208516     0.09400
Cu902      Cu  0.91738589  0.14652249  0.93904732     0.44200
Cu903      Cu  0.93162826  0.21573192  0.89089263     0.42000
Cu904      Cu  0.85259257  0.17140950  0.89038380     0.43900
N905        N  0.87098349  0.12719417  0.94228931    -0.34200
N906        N  0.84586340  0.13790587  0.92606881    -0.28500
C907        C  0.81848013  0.12373468  0.93707034    -0.04600
C908        C  0.82701174  0.10358431  0.96171518     0.07700
C909        C  0.86055455  0.10574654  0.96358304     0.01500
H910        H  0.79416915  0.12829436  0.92831935     0.09100
H911        H  0.87658921  0.09248633  0.97878401     0.08200
N912        N  0.86953032  0.20207047  0.85538744    -0.35700
N913        N  0.89794679  0.21736310  0.85532097    -0.27800
C914        C  0.89927354  0.23747670  0.83068521    -0.03100
C915        C  0.87030487  0.23488217  0.81456333     0.05500
C916        C  0.85207162  0.21228683  0.83084052     0.03600
H917        H  0.91824004  0.25536862  0.82690315     0.08700
H918        H  0.82672882  0.20623941  0.82692686     0.07600
N919        N  0.95098641  0.21180962  0.56446223    -0.26800
N920        N  0.95345044  0.18046328  0.55780759    -0.34700
C921        C  0.98163688  0.17572914  0.54246106     0.01500
C922        C  0.99641565  0.20578306  0.53818421     0.07500
C923        C  0.97674500  0.22792606  0.55299222    -0.05600
H924        H  0.98999182  0.15237762  0.53401362     0.08200
H925        H  0.98004097  0.25406430  0.55409219     0.09400
Cu926      Cu  0.91448597  0.14798555  0.56294067     0.44200
Cu927      Cu  0.91261251  0.23209658  0.58738629     0.42000
Cu928      Cu  0.83953170  0.18673579  0.59058615     0.43900
N929        N  0.86748252  0.12950744  0.55617072    -0.34200
N930        N  0.84059491  0.14535931  0.56389260    -0.28500
C931        C  0.81470588  0.13067717  0.55091492    -0.04600
C932        C  0.82573541  0.10443915  0.53404817     0.07700
C933        C  0.85911709  0.10361326  0.53873536     0.01500
H934        H  0.78980618  0.13915772  0.55279864     0.09100
H935        H  0.87622990  0.08593102  0.52984775     0.08200
N936        N  0.84794332  0.22679554  0.61791348    -0.35700
N937        N  0.87516107  0.24384977  0.61631103    -0.27800
C938        C  0.87560497  0.26608288  0.63912034    -0.03100
C939        C  0.84716971  0.26271531  0.65567775     0.05500
C940        C  0.83006374  0.23770667  0.64183948     0.03600
H941        H  0.89587453  0.28204098  0.64432599     0.08700
H942        H  0.80735903  0.22705149  0.64962501     0.07600
C943        C  0.05760507  0.22300466  0.53344822     0.45900
H944        H  0.05734187  0.22289139  0.55931886    -0.03100
C945        C  0.05798122  0.22293582  0.97247997     0.46000
H946        H  0.05827984  0.22292574  0.94660713    -0.03100
C947        C  0.08124076  0.19808055  0.51929881    -0.16800
C948        C  0.02477028  0.21391525  0.51880172    -0.16500
C949        C  0.06722240  0.25613452  0.51930026    -0.16900
C950        C  0.08157169  0.19800245  0.98689897    -0.16900
C951        C  0.02493342  0.21387803  0.98659987    -0.16500
C952        C  0.06722547  0.25597907  0.98682243    -0.16800
N953        N  0.81664232  0.30460130  0.79651651    -0.36100
N954        N  0.77525806  0.34866318  0.76071420    -0.56700
N955        N  0.80109733  0.31943067  0.70552660    -0.36100
N956        N  0.84424533  0.27715494  0.74128632    -0.56700
C957        C  0.80627668  0.32511839  0.81890203     0.27400
C958        C  0.84134445  0.28703420  0.80875843     0.27500
C959        C  0.78412878  0.34451924  0.69320753     0.27400
C960        C  0.82091856  0.30800628  0.68302447     0.27400
C961        C  0.76239008  0.35309008  0.78922289     0.36100
C962        C  0.75302373  0.35991787  0.74021241     0.36100
C963        C  0.85587247  0.25525998  0.76191761     0.36100
C964        C  0.84803916  0.26374808  0.71293760     0.36100
C965        C  0.82476872  0.32084447  0.84561793    -0.21400
C966        C  0.84684709  0.29667921  0.83925907    -0.21400
C967        C  0.79364132  0.34933246  0.66254989    -0.21400
C968        C  0.81695290  0.32629619  0.65615614    -0.21400
C969        C  0.73226038  0.36825388  0.78696673    -0.22500
C970        C  0.72627230  0.37253000  0.75574564    -0.22500
C971        C  0.86824974  0.22826942  0.74663251    -0.22500
C972        C  0.86333029  0.23368211  0.71543046    -0.22500
C973        C  0.77803301  0.34441012  0.81716706    -0.17800
C974        C  0.85619686  0.26006211  0.79427337    -0.17800
C975        C  0.83891285  0.27891507  0.68487316    -0.17800
C976        C  0.75746930  0.35995765  0.70776395    -0.17800
H977        H  0.82183891  0.33300312  0.86779494     0.15100
H978        H  0.86423028  0.28679486  0.85565272     0.15100
H979        H  0.78407289  0.36672519  0.64600678     0.15100
H980        H  0.82862500  0.32255540  0.63385245     0.15100
H981        H  0.71622364  0.37528843  0.80580267     0.13400
H982        H  0.70479761  0.38364131  0.74565891     0.13400
H983        H  0.87956253  0.20698308  0.75687620     0.13400
H984        H  0.87012940  0.21732399  0.69677533     0.13400
H985        H  0.80408672  0.29918177  0.77620594     0.26600
H986        H  0.79540707  0.30723051  0.72597172     0.26600
N987        N  0.71499825  0.45592986  0.94079090    -0.26800
N988        N  0.68339097  0.45603462  0.94675142    -0.34700
C989        C  0.67620041  0.48356591  0.96227131     0.01500
C990        C  0.70493346  0.50049335  0.96735386     0.07500
C991        C  0.72886230  0.48265711  0.95289468    -0.05600
H992        H  0.65198253  0.49026911  0.96970125     0.08200
H993        H  0.75466298  0.48807198  0.95213871     0.09400
Cu994      Cu  0.65346633  0.41533978  0.94010926     0.44200
Cu995      Cu  0.73821033  0.41989536  0.91689209     0.42000
Cu996      Cu  0.69980387  0.34259342  0.92205400     0.43900
N997        N  0.63674015  0.36779275  0.94745331    -0.34200
N998        N  0.65548404  0.34182623  0.94398445    -0.28500
C999        C  0.64055789  0.31564491  0.95613058    -0.04600
C1000       C  0.61100104  0.32551722  0.96789697     0.07700
C1001       C  0.60878740  0.35846901  0.96120446     0.01500
H1002       H  0.65083481  0.29137075  0.95696157     0.09100
H1003       H  0.58893646  0.37473918  0.96687450     0.08200
N1004       N  0.73488691  0.35345209  0.88978011    -0.35700
N1005       N  0.74863063  0.38243949  0.88746382    -0.27800
C1006       C  0.76628408  0.38385580  0.86125475    -0.03100
C1007       C  0.76327054  0.35424572  0.84660422     0.05500
C1008       C  0.74353207  0.33535311  0.86519365     0.03600
H1009       H  0.77934504  0.40509690  0.85306798     0.08700
H1010       H  0.73489531  0.31092985  0.86049902     0.07600
N1011       N  0.69922261  0.46420817  0.57411494    -0.26800
N1012       N  0.67217916  0.46089769  0.55779023    -0.34700
C1013       C  0.67107277  0.48454201  0.53621191     0.01500
C1014       C  0.69939777  0.50283240  0.53820835     0.07500
C1015       C  0.71635517  0.48970010  0.56302898    -0.05600
H1016       H  0.65076578  0.48824994  0.52077112     0.08200
H1017       H  0.73968796  0.49766852  0.57196991     0.09400
Cu1018     Cu  0.64110254  0.42101205  0.56237637     0.44200
Cu1019     Cu  0.71009998  0.43340630  0.61049691     0.42000
Cu1020     Cu  0.66186054  0.35769688  0.61700119     0.43900
N1021       N  0.62345993  0.37346610  0.55972200    -0.34200
N1022       N  0.63205534  0.34948280  0.57853545    -0.28500
C1023       C  0.62010313  0.32117253  0.56717429    -0.04600
C1024       C  0.60375971  0.32770528  0.53956673     0.07700
C1025       C  0.60565102  0.36121934  0.53630869     0.01500
H1026       H  0.62397684  0.29748250  0.57760550     0.09100
H1027       H  0.59465298  0.37604817  0.51857085     0.08200
N1028       N  0.69567868  0.37394900  0.64969844    -0.35700
N1029       N  0.71292972  0.40107825  0.64711560    -0.27800
C1030       C  0.73527435  0.40211516  0.66993667    -0.03100
C1031       C  0.73213826  0.37427566  0.68767379     0.05500
C1032       C  0.70685507  0.35699001  0.67424128     0.03600
H1033       H  0.75451947  0.42007330  0.67150551     0.08700
H1034       H  0.69937042  0.33243185  0.67999208     0.07600
C1035       C  0.71903788  0.56370449  0.53215421     0.45900
H1036       H  0.71837017  0.56442525  0.55800657    -0.03100
C1037       C  0.72068027  0.56210550  0.97151413     0.46000
H1038       H  0.72132030  0.56138683  0.94565941    -0.03100
C1039       C  0.69492360  0.58752500  0.51676911    -0.16800
C1040       C  0.75278165  0.57203633  0.51838151    -0.16500
C1041       C  0.70950569  0.53057330  0.51832794    -0.16900
C1042       C  0.69584891  0.58660201  0.98461940    -0.16900
C1043       C  0.75372662  0.57096779  0.98635870    -0.16500
C1044       C  0.71050692  0.52969175  0.98641828    -0.16800
N1045       N  0.17898825  0.41819841  0.56975824    -0.26800
N1046       N  0.18367064  0.38820472  0.55943080    -0.34700
C1047       C  0.20935466  0.38764494  0.54003063     0.01500
C1048       C  0.22136115  0.41888542  0.53699649     0.07500
C1049       C  0.20190985  0.43767650  0.55666167    -0.05600
H1050       H  0.21831132  0.36594243  0.52868441     0.08200
H1051       H  0.20383082  0.46366186  0.56048981     0.09400
Cu1052     Cu  0.15168955  0.35012006  0.56678530     0.44200
Cu1053     Cu  0.13974617  0.42909986  0.60038914     0.42000
Cu1054     Cu  0.07399340  0.36640123  0.60053305     0.43900
N1055       N  0.11197273  0.32001841  0.56014830    -0.34200
N1056       N  0.08238614  0.32634833  0.57071087    -0.28500
C1057       C  0.06156731  0.30422242  0.55835805    -0.04600
C1058       C  0.07912238  0.28351596  0.53892187     0.07700
C1059       C  0.11096369  0.29400191  0.54123303     0.01500
H1060       H  0.03556533  0.30371581  0.56252290     0.09100
H1061       H  0.13199611  0.28377635  0.52970914     0.08200
N1062       N  0.07509094  0.40748805  0.63021018    -0.35700
N1063       N  0.09839713  0.42994835  0.63032266    -0.27800
C1064       C  0.09127824  0.45227056  0.65254144    -0.03100
C1065       C  0.06230359  0.44353582  0.66716887     0.05500
C1066       C  0.05285167  0.41506920  0.65227184     0.03600
H1067       H  0.10609242  0.47339054  0.65772818     0.08700
H1068       H  0.03124047  0.40085915  0.65716396     0.07600
N1069       N  0.17729680  0.41783565  0.93236216    -0.26800
N1070       N  0.18132258  0.38845206  0.94433892    -0.34700
C1071       C  0.20686873  0.38839780  0.96385516     0.01500
C1072       C  0.21971914  0.41939580  0.96515052     0.07500
C1073       C  0.20075519  0.43748589  0.94437297    -0.05600
H1074       H  0.21542394  0.36708703  0.97610776     0.08200
H1075       H  0.20348409  0.46308266  0.93893790     0.09400
Cu1076     Cu  0.14935880  0.35052739  0.93788289     0.44200
Cu1077     Cu  0.13824078  0.42680625  0.90079861     0.42000
Cu1078     Cu  0.07250153  0.36304200  0.90120336     0.43900
N1079       N  0.11034659  0.32012708  0.94507593    -0.34200
N1080       N  0.08095055  0.32481320  0.93332772    -0.28500
C1081       C  0.06063017  0.30247492  0.94610850    -0.04600
C1082       C  0.07833360  0.28359714  0.96714639     0.07700
C1083       C  0.10974794  0.29517941  0.96522912     0.01500
H1084       H  0.03488719  0.30046762  0.94098792     0.09100
H1085       H  0.13086679  0.28623340  0.97753839     0.08200
N1086       N  0.07447928  0.40301949  0.86996064    -0.35700
N1087       N  0.09765467  0.42564390  0.86976373    -0.27800
C1088       C  0.09084139  0.44736237  0.84691091    -0.03100
C1089       C  0.06229027  0.43810421  0.83182801     0.05500
C1090       C  0.05262907  0.40998765  0.84730075     0.03600
H1091       H  0.10528994  0.46879323  0.84194956     0.08700
H1092       H  0.03084393  0.39592112  0.84274137     0.07600
N1093       N  0.03819726  0.80348861  0.92385223    -0.26800
N1094       N  0.04153993  0.83018397  0.94069737    -0.34700
C1095       C  0.01796708  0.83077438  0.96232728     0.01500
C1096       C  0.99990165  0.80233090  0.96017998     0.07500
C1097       C  0.01289927  0.78597835  0.93490215    -0.05600
H1098       H  0.01433792  0.85079533  0.97802582     0.08200
H1099       H  0.00527470  0.76255831  0.92591052     0.09400
Cu1100     Cu  0.08213704  0.86080865  0.93855321     0.44200
Cu1101     Cu  0.06955363  0.79265545  0.88777287     0.42000
Cu1102     Cu  0.14946774  0.83294568  0.89261900     0.43900
N1103       N  0.12975161  0.87791188  0.94406173    -0.34200
N1104       N  0.15504916  0.86624744  0.92864156    -0.28500
C1105       C  0.18258223  0.87966139  0.94013485    -0.04600
C1106       C  0.17418765  0.90045979  0.96422891     0.07700
C1107       C  0.14045141  0.89930615  0.96540948     0.01500
H1108       H  0.20692403  0.87433251  0.93188888     0.09100
H1109       H  0.12455625  0.91336487  0.98013357     0.08200
N1110       N  0.13478994  0.80231611  0.85670794    -0.35700
N1111       N  0.10575509  0.78842388  0.85466967    -0.27800
C1112       C  0.10526260  0.76842836  0.82991347    -0.03100
C1113       C  0.13536928  0.76979713  0.81568684     0.05500
C1114       C  0.15354402  0.79129101  0.83335372     0.03600
H1115       H  0.08555716  0.75186960  0.82444245     0.08700
H1116       H  0.17925831  0.79653137  0.83084526     0.07600
N1117       N  0.04745507  0.79017905  0.55937009    -0.26800
N1118       N  0.04667602  0.82136316  0.55176979    -0.34700
C1119       C  0.01942984  0.82688936  0.53521805     0.01500
C1120       C  0.00361513  0.79738828  0.53089606     0.07500
C1121       C  0.02155478  0.77485865  0.54720298    -0.05600
H1122       H  0.01187785  0.85062437  0.52719660     0.08200
H1123       H  0.01664572  0.74905200  0.54943374     0.09400
Cu1124     Cu  0.08622797  0.85270635  0.55843644     0.44200
Cu1125     Cu  0.08318501  0.76980164  0.58582677     0.42000
Cu1126     Cu  0.15974462  0.81071969  0.58361866     0.43900
N1127       N  0.13346686  0.87114549  0.55363156    -0.34200
N1128       N  0.16003061  0.85426387  0.56029891    -0.28500
C1129       C  0.18633561  0.86994797  0.54928534    -0.04600
C1130       C  0.17588198  0.89798246  0.53484847     0.07700
C1131       C  0.14239886  0.89855012  0.53875119     0.01500
H1132       H  0.21107367  0.86088880  0.55056793     0.09100
H1133       H  0.12559706  0.91695008  0.53066624     0.08200
N1134       N  0.14906444  0.77401585  0.61426305    -0.35700
N1135       N  0.12039075  0.75947040  0.61554825    -0.27800
C1136       C  0.11926315  0.74001553  0.64057754    -0.03100
C1137       C  0.14874720  0.74266019  0.65550793     0.05500
C1138       C  0.16724724  0.76410971  0.63835782     0.03600
H1139       H  0.09833896  0.72582640  0.64773112     0.08700
H1140       H  0.19148088  0.77289137  0.64368787     0.07600
C1141       C  0.93972481  0.78105802  0.96792750     0.45900
H1142       H  0.93814634  0.78195859  0.94211160    -0.03100
C1143       C  0.94262794  0.77930044  0.52814229     0.46000
H1144       H  0.94414745  0.77853798  0.55396270    -0.03100
C1145       C  0.91592505  0.80444147  0.98417039    -0.16800
C1146       C  0.93221592  0.74716686  0.98163702    -0.16500
C1147       C  0.97311342  0.79116567  0.98086129    -0.16900
C1148       C  0.91735529  0.80380894  0.51594327    -0.16900
C1149       C  0.93361403  0.74627672  0.51334918    -0.16500
C1150       C  0.97438417  0.79019735  0.51235122    -0.16800
N1151       N  0.19847556  0.68658835  0.70239078    -0.36100
N1152       N  0.15739503  0.72832628  0.74078800    -0.56700
N1153       N  0.18734214  0.69953731  0.79411137    -0.36100
N1154       N  0.22617540  0.65556046  0.75566416    -0.56700
C1155       C  0.17706731  0.69777751  0.68115230     0.27400
C1156       C  0.21500215  0.66192395  0.68889807     0.27500
C1157       C  0.16378900  0.71756087  0.80773164     0.27400
C1158       C  0.19761656  0.67774672  0.81544563     0.27400
C1159       C  0.15157052  0.74170080  0.71273399     0.36100
C1160       C  0.14739060  0.75026727  0.76211654     0.36100
C1161       C  0.24763481  0.64481181  0.73422458     0.36100
C1162       C  0.23960753  0.64941865  0.78362010     0.36100
C1163       C  0.17966565  0.67974867  0.65394851    -0.21400
C1164       C  0.20379998  0.65716803  0.65879518    -0.21400
C1165       C  0.15890667  0.70699949  0.83802443    -0.21400
C1166       C  0.18017631  0.68169965  0.84284949    -0.21400
C1167       C  0.13672625  0.77187484  0.71616144    -0.22500
C1168       C  0.13414845  0.77735340  0.74762966    -0.22500
C1169       C  0.27444581  0.63081601  0.74852962    -0.22500
C1170       C  0.26928177  0.63362207  0.78002028    -0.22500
C1171       C  0.15869538  0.72649877  0.68419525    -0.17800
C1172       C  0.24227909  0.64635084  0.70199689    -0.17800
C1173       C  0.22505575  0.65748075  0.81223401    -0.17800
C1174       C  0.14897549  0.74519764  0.79441879    -0.17800
H1175       H  0.16648751  0.68338194  0.63239749     0.15100
H1176       H  0.21264850  0.63991963  0.64174653     0.15100
H1177       H  0.14232464  0.71692437  0.85514566     0.15100
H1178       H  0.18331724  0.66851575  0.86446927     0.15100
H1179       H  0.12875308  0.78825518  0.69793363     0.13400
H1180       H  0.12369524  0.79868734  0.75856910     0.13400
H1181       H  0.29537254  0.61970048  0.73745876     0.13400
H1182       H  0.28562240  0.62532140  0.79814598     0.13400
H1183       H  0.20522222  0.69858103  0.72265968     0.26600
H1184       H  0.19929172  0.70522216  0.77352328     0.26600
N1185       N  0.30166639  0.53853297  0.57117886    -0.26800
N1186       N  0.32983250  0.54036532  0.55640133    -0.34700
C1187       C  0.33154342  0.51564649  0.53600135     0.01500
C1188       C  0.30237129  0.49863475  0.53673708     0.07500
C1189       C  0.28433422  0.51329111  0.55993660    -0.05600
H1190       H  0.35273010  0.51044359  0.52212464     0.08200
H1191       H  0.26009929  0.50662641  0.56756574     0.09400
Cu1192     Cu  0.36120303  0.58043553  0.55949875     0.44200
Cu1193     Cu  0.28889933  0.57046251  0.60585919     0.42000
Cu1194     Cu  0.33231235  0.64749719  0.60605786     0.43900
N1195       N  0.37784050  0.62842286  0.55477894    -0.34200
N1196       N  0.36571111  0.65331411  0.57047948    -0.28500
C1197       C  0.37809836  0.68128477  0.55905109    -0.04600
C1198       C  0.39871075  0.67372013  0.53466979     0.07700
C1199       C  0.39864459  0.63994503  0.53325829     0.01500
H1200       H  0.37188066  0.70539466  0.56733277     0.09100
H1201       H  0.41282767  0.62462215  0.51810305     0.08200
N1202       N  0.30021236  0.63291962  0.64048458    -0.35700
N1203       N  0.28477799  0.60464554  0.64054011    -0.27800
C1204       C  0.26408405  0.60366102  0.66471494    -0.03100
C1205       C  0.26662864  0.63272853  0.68060427     0.05500
C1206       C  0.28954480  0.65079636  0.66456379     0.03600
H1207       H  0.24644083  0.58451712  0.66871427     0.08700
H1208       H  0.29605051  0.67599114  0.66864511     0.07600
N1209       N  0.28998467  0.54355676  0.93521802    -0.26800
N1210       N  0.32062939  0.54465652  0.94460446    -0.34700
C1211       C  0.32654576  0.51812283  0.96205373     0.01500
C1212       C  0.29780506  0.50061157  0.96492107     0.07500
C1213       C  0.27539190  0.51699429  0.94697546    -0.05600
H1214       H  0.35006008  0.51225218  0.97168897     0.08200
H1215       H  0.24999564  0.51078880  0.94364822     0.09400
Cu1216     Cu  0.35049841  0.58559632  0.93903225     0.44200
Cu1217     Cu  0.26910496  0.57850342  0.90801089     0.42000
Cu1218     Cu  0.30652873  0.65745003  0.91476964     0.43900
N1219       N  0.36794688  0.63321390  0.94424583    -0.34200
N1220       N  0.35026146  0.65931917  0.93790431    -0.28500
C1221       C  0.36541077  0.68599804  0.94884407    -0.04600
C1222       C  0.39398151  0.67628013  0.96289297     0.07700
C1223       C  0.39532325  0.64281436  0.95883072     0.01500
H1224       H  0.35566110  0.71047982  0.94778457     0.09100
H1225       H  0.41427466  0.62646221  0.96657248     0.08200
N1226       N  0.27107314  0.64613443  0.88287676    -0.35700
N1227       N  0.25810728  0.61684749  0.87972729    -0.27800
C1228       C  0.23941096  0.61619459  0.85413893    -0.03100
C1229       C  0.24083241  0.64662424  0.84084959     0.05500
C1230       C  0.26082175  0.66513977  0.85950780     0.03600
H1231       H  0.22650992  0.59503253  0.84555085     0.08700
H1232       H  0.26845530  0.69005813  0.85566480     0.07600
C1233       C  0.28113477  0.43916871  0.96947478     0.45900
H1234       H  0.28052937  0.43979298  0.94361683    -0.03100
C1235       C  0.28269846  0.43792083  0.53063979     0.46000
H1236       H  0.28331564  0.43725646  0.55649843    -0.03100
C1237       C  0.30638730  0.41511724  0.98268935    -0.16800
C1238       C  0.29096811  0.47174849  0.98425821    -0.16500
C1239       C  0.24820841  0.42977624  0.98435434    -0.16900
C1240       C  0.30699238  0.41429536  0.51540918    -0.16900
C1241       C  0.29210221  0.47110223  0.51678514    -0.16500
C1242       C  0.24909776  0.42925687  0.51682713    -0.16800
N1243       N  0.92095605  0.67662211  0.56674790    -0.26800
N1244       N  0.89151695  0.68111564  0.55502569    -0.34700
C1245       C  0.89186401  0.70605756  0.53484022     0.01500
C1246       C  0.92316474  0.71798254  0.53275088     0.07500
C1247       C  0.94104251  0.69921057  0.55386677    -0.05600
H1248       H  0.87053853  0.71502808  0.52288532     0.08200
H1249       H  0.96672409  0.70160954  0.55909929     0.09400
Cu1250     Cu  0.85241721  0.65104732  0.56307950     0.44200
Cu1251     Cu  0.92928220  0.63836687  0.59943159     0.42000
Cu1252     Cu  0.86156913  0.57623545  0.60313663     0.43900
N1253       N  0.81941603  0.61378670  0.55820844    -0.34200
N1254       N  0.82256455  0.58489937  0.57145861    -0.28500
C1255       C  0.79878036  0.56527970  0.55999747    -0.04600
C1256       C  0.78051944  0.58287773  0.53829163     0.07700
C1257       C  0.79416085  0.61354923  0.53836186     0.01500
H1258       H  0.79558258  0.53992233  0.56618440     0.09100
H1259       H  0.78657966  0.63432457  0.52474746     0.08200
N1260       N  0.90316049  0.57690600  0.63294853    -0.35700
N1261       N  0.92718571  0.59860053  0.63149014    -0.27800
C1262       C  0.94960983  0.59105032  0.65352971    -0.03100
C1263       C  0.93943157  0.56357377  0.66990058     0.05500
C1264       C  0.90991840  0.55537764  0.65600060     0.03600
H1265       H  0.97207407  0.60432305  0.65715257     0.08700
H1266       H  0.89473693  0.53472026  0.66188124     0.07600
N1267       N  0.91845227  0.67685990  0.92965699    -0.26800
N1268       N  0.88881312  0.68224683  0.94053151    -0.34700
C1269       C  0.88917013  0.70835079  0.95939936     0.01500
C1270       C  0.92072747  0.71977782  0.96159912     0.07500
C1271       C  0.93869185  0.69961511  0.94190574    -0.05600
H1272       H  0.86793997  0.71781598  0.97117204     0.08200
H1273       H  0.96465983  0.70078703  0.93768000     0.09400
Cu1274     Cu  0.85057140  0.64996452  0.93526872     0.44200
Cu1275     Cu  0.92755119  0.63655386  0.90009629     0.42000
Cu1276     Cu  0.86576698  0.56968022  0.90585336     0.43900
N1277       N  0.82006201  0.61107192  0.94438721    -0.34200
N1278       N  0.82588835  0.58070454  0.93570501    -0.28500
C1279       C  0.80300136  0.56132550  0.94902395    -0.04600
C1280       C  0.78236194  0.58064743  0.96707256     0.07700
C1281       C  0.79372121  0.61196521  0.96293408     0.01500
H1282       H  0.80166999  0.53516580  0.94617087     0.09100
H1283       H  0.78372779  0.63400073  0.97283785     0.08200
N1284       N  0.90545523  0.57027408  0.87390290    -0.35700
N1285       N  0.92696189  0.59436114  0.87161013    -0.27800
C1286       C  0.94788368  0.58750968  0.84817052    -0.03100
C1287       C  0.93941989  0.55785748  0.83487520     0.05500
C1288       C  0.91254113  0.54758738  0.85201146     0.03600
H1289       H  0.96806494  0.60291370  0.84137936     0.08700
H1290       H  0.89904797  0.52520743  0.84868399     0.07600
N1291       N  0.50104577  0.00174479  0.70096741    -0.36100
N1292       N  0.46531470  0.96531704  0.74957865    -0.56700
N1293       N  0.50060521  0.00224106  0.79781954    -0.36100
N1294       N  0.53851879  0.03639326  0.74918145    -0.56700
C1295       C  0.48480311  0.97993002  0.68287677     0.27400
C1296       C  0.52298756  0.01760943  0.68268936     0.27500
C1297       C  0.48356461  0.98134351  0.81625443     0.27400
C1298       C  0.52218821  0.01862412  0.81604049     0.27400
C1299       C  0.44960243  0.95362766  0.72402982     0.36100
C1300       C  0.44916084  0.95410085  0.77508206     0.36100
C1301       C  0.55106026  0.05146845  0.72366536     0.36100
C1302       C  0.55087826  0.05168877  0.77463903     0.36100
C1303       C  0.49635337  0.98238485  0.65260512    -0.21400
C1304       C  0.52023547  0.00599107  0.65248715    -0.21400
C1305       C  0.49424410  0.98490868  0.84671239    -0.21400
C1306       C  0.51840312  0.00825582  0.84658338    -0.21400
C1307       C  0.42352705  0.93453019  0.73347079    -0.22500
C1308       C  0.42325157  0.93482409  0.76556921    -0.22500
C1309       C  0.57194610  0.07613919  0.73305984    -0.22500
C1310       C  0.57186209  0.07625834  0.76512545    -0.22500
C1311       C  0.45894139  0.95874703  0.69230449    -0.17800
C1312       C  0.54491114  0.04286950  0.69197759    -0.17800
C1313       C  0.54449234  0.04345045  0.80639454    -0.17800
C1314       C  0.45788343  0.95990516  0.80685911    -0.17800
H1315       H  0.48832737  0.96871688  0.63248202     0.15100
H1316       H  0.53399117  0.01370563  0.63229873     0.15100
H1317       H  0.48545258  0.97215707  0.86710084     0.15100
H1318       H  0.53156036  0.01670496  0.86686457     0.15100
H1319       H  0.40650066  0.92154191  0.71876516     0.13400
H1320       H  0.40596009  0.92212578  0.78022720     0.13400
H1321       H  0.58594011  0.09234968  0.71834861     0.13400
H1322       H  0.58578825  0.09259980  0.77975570     0.13400
H1323       H  0.49546081  0.00748924  0.72377820     0.26600
H1324       H  0.49601469  0.00692515  0.77460796     0.26600
N1325       N  0.79062592  0.95535612  0.93314431    -0.26800
N1326       N  0.82154573  0.95518692  0.94167870    -0.34700
C1327       C  0.82723537  0.98205467  0.95870744     0.01500
C1328       C  0.79802123  0.99858483  0.96228729     0.07500
C1329       C  0.77558051  0.98148456  0.94511839    -0.05600
H1330       H  0.85074828  0.98856516  0.96804823     0.08200
H1331       H  0.74984489  0.98670269  0.94274205     0.09400
Cu1332     Cu  0.85121943  0.91411262  0.93713102     0.44200
Cu1333     Cu  0.76965486  0.91924373  0.90785968     0.42000
Cu1334     Cu  0.80302404  0.84077197  0.92178785     0.43900
N1335       N  0.86684475  0.86650914  0.94581673    -0.34200
N1336       N  0.84774976  0.84063946  0.94333023    -0.28500
C1337       C  0.86285725  0.81460253  0.95559646    -0.04600
C1338       C  0.89286161  0.82448576  0.96630832     0.07700
C1339       C  0.89504847  0.85728475  0.95914592     0.01500
H1340       H  0.85249457  0.79039907  0.95707541     0.09100
H1341       H  0.91505137  0.87355530  0.96435333     0.08200
N1342       N  0.76911935  0.85004705  0.88773576    -0.35700
N1343       N  0.75787603  0.87958728  0.88200423    -0.27800
C1344       C  0.74093939  0.87943849  0.85538271    -0.03100
C1345       C  0.74162325  0.84820346  0.84397111     0.05500
C1346       C  0.75937726  0.82996720  0.86493858     0.03600
H1347       H  0.72990726  0.90063381  0.84472538     0.08700
H1348       H  0.76616277  0.80457641  0.86291013     0.07600
N1349       N  0.80049274  0.96112166  0.57156604    -0.26800
N1350       N  0.82730568  0.95730091  0.55502418    -0.34700
C1351       C  0.82821353  0.98015560  0.53274772     0.01500
C1352       C  0.79993986  0.99845237  0.53435141     0.07500
C1353       C  0.78326428  0.98624607  0.55982626    -0.05600
H1354       H  0.84862615  0.98353992  0.51744183     0.08200
H1355       H  0.76020003  0.99477192  0.56892757     0.09400
Cu1356     Cu  0.85876383  0.91804585  0.55996924     0.44200
Cu1357     Cu  0.79032705  0.93136566  0.60903146     0.42000
Cu1358     Cu  0.83718212  0.85397957  0.61224846     0.43900
N1359       N  0.87753295  0.87118819  0.55674778    -0.34200
N1360       N  0.86869568  0.84671476  0.57484429    -0.28500
C1361       C  0.88198582  0.81893064  0.56368685    -0.04600
C1362       C  0.89948656  0.82639490  0.53697234     0.07700
C1363       C  0.89669841  0.85984173  0.53391369     0.01500
H1364       H  0.87827313  0.79497373  0.57359899     0.09100
H1365       H  0.90783179  0.87514978  0.51657495     0.08200
N1366       N  0.80406726  0.86990549  0.64580107    -0.35700
N1367       N  0.78776771  0.89774528  0.64471633    -0.27800
C1368       C  0.76615794  0.89859660  0.66818797    -0.03100
C1369       C  0.76872587  0.86989381  0.68473230     0.05500
C1370       C  0.79293333  0.85229910  0.66994537     0.03600
H1371       H  0.74765858  0.91715993  0.67099406     0.08700
H1372       H  0.79979378  0.82731533  0.67464445     0.07600
C1373       C  0.78105512  0.05930995  0.52884978     0.45900
H1374       H  0.78130608  0.05948837  0.55472321    -0.03100
C1375       C  0.78066657  0.05953859  0.96767002     0.46000
H1376       H  0.78044852  0.05947354  0.94179398    -0.03100
C1377       C  0.80555506  0.08319121  0.51433037    -0.16800
C1378       C  0.79044869  0.02644520  0.51456060    -0.16500
C1379       C  0.74779156  0.06838447  0.51479865    -0.16900
C1380       C  0.80516982  0.08368951  0.98161877    -0.16900
C1381       C  0.79063582  0.02681240  0.98206547    -0.16500
C1382       C  0.74754820  0.06831631  0.98223472    -0.16800
N1383       N  0.69698962  0.81840052  0.70343360    -0.36100
N1384       N  0.72788127  0.84239585  0.75840850    -0.56700
N1385       N  0.68733391  0.79773483  0.79449165    -0.36100
N1386       N  0.65369539  0.77619431  0.73951519    -0.56700
C1387       C  0.71563032  0.84225217  0.69105002     0.27400
C1388       C  0.67535318  0.80939936  0.68144222     0.27500
C1389       C  0.69920366  0.81700526  0.81724081     0.27400
C1390       C  0.66263163  0.78041332  0.80703023     0.27400
C1391       C  0.74908109  0.85480620  0.73751547     0.36100
C1392       C  0.74148198  0.84659832  0.78663806     0.36100
C1393       C  0.64698682  0.76522393  0.71067091     0.36100
C1394       C  0.64291585  0.75310833  0.75940210     0.36100
C1395       C  0.70546336  0.84865888  0.66085747    -0.21400
C1396       C  0.67991524  0.82804631  0.65486993    -0.21400
C1397       C  0.68177314  0.81196347  0.84450662    -0.21400
C1398       C  0.65877047  0.78869722  0.83808514    -0.21400
C1399       C  0.77594160  0.86783514  0.75256170    -0.22500
C1400       C  0.77104072  0.86277087  0.78383132    -0.22500
C1401       C  0.63071387  0.73561187  0.71226466    -0.22500
C1402       C  0.62818977  0.72789098  0.74328894    -0.22500
C1403       C  0.74359353  0.85573540  0.70519918    -0.17800
C1404       C  0.65522704  0.78168244  0.68298175    -0.17800
C1405       C  0.64562132  0.75519098  0.79192920    -0.17800
C1406       C  0.72705711  0.83685995  0.81489240    -0.17800
H1407       H  0.71582238  0.86563420  0.64436074     0.15100
H1408       H  0.66713629  0.82598647  0.63291573     0.15100
H1409       H  0.68570030  0.82331433  0.86693306     0.15100
H1410       H  0.64151089  0.77869529  0.85455786     0.15100
H1411       H  0.79670829  0.87989873  0.74213505     0.13400
H1412       H  0.78747501  0.86989668  0.80232616     0.13400
H1413       H  0.62193380  0.72093188  0.69309166     0.13400
H1414       H  0.61701644  0.70619825  0.75286748     0.13400
H1415       H  0.70230549  0.80524705  0.72339126     0.26600
H1416       H  0.69842830  0.79314647  0.77323650     0.26600
N1417       N  0.54736299  0.71867385  0.55695915    -0.26800
N1418       N  0.54544706  0.68670170  0.55338629    -0.34700
C1419       C  0.51719580  0.67986383  0.53887191     0.01500
C1420       C  0.50196495  0.70903532  0.53162171     0.07500
C1421       C  0.52132879  0.73300249  0.54399674    -0.05600
H1422       H  0.50911346  0.65556998  0.53293925     0.08200
H1423       H  0.51723707  0.75903820  0.54306655     0.09400
Cu1424     Cu  0.58479883  0.65499426  0.56099116     0.44200
Cu1425     Cu  0.58385460  0.74219982  0.57998658     0.42000
Cu1426     Cu  0.65773884  0.69833042  0.58194950     0.43900
N1427       N  0.63202870  0.63637749  0.55483326    -0.34200
N1428       N  0.65840756  0.65413660  0.55978442    -0.28500
C1429       C  0.68464638  0.63871061  0.54830702    -0.04600
C1430       C  0.67447893  0.60974472  0.53544917     0.07700
C1431       C  0.64111731  0.60851633  0.54070545     0.01500
H1432       H  0.70916529  0.64842966  0.54837626     0.09100
H1433       H  0.62448122  0.58942830  0.53378801     0.08200
N1434       N  0.64741248  0.73577747  0.61187158    -0.35700
N1435       N  0.61973247  0.75214973  0.61134206    -0.27800
C1436       C  0.61803766  0.77152789  0.63644424    -0.03100
C1437       C  0.64613605  0.76680216  0.65333804     0.05500
C1438       C  0.66434010  0.74425685  0.63723433     0.03600
H1439       H  0.59744860  0.78672405  0.64251336     0.08700
H1440       H  0.68739841  0.73370724  0.64416047     0.07600
N1441       N  0.53525803  0.70012960  0.92183128    -0.26800
N1442       N  0.54132445  0.67601169  0.94131612    -0.34700
C1443       C  0.51945706  0.67682211  0.96442394     0.01500
C1444       C  0.49923341  0.70344172  0.96021815     0.07500
C1445       C  0.50944594  0.71726212  0.93241961    -0.05600
H1446       H  0.51821354  0.65860162  0.98230082     0.08200
H1447       H  0.49940290  0.73862621  0.92118362     0.09400
Cu1448     Cu  0.58193466  0.64588159  0.93930305     0.44200
Cu1449     Cu  0.56438029  0.70796218  0.88324423     0.42000
Cu1450     Cu  0.64630724  0.66861634  0.88966176     0.43900
N1451       N  0.62886551  0.62758722  0.94412117    -0.34200
N1452       N  0.65368853  0.63740428  0.92700754    -0.28500
C1453       C  0.68135642  0.62404823  0.93830598    -0.04600
C1454       C  0.67344047  0.60532886  0.96410990     0.07700
C1455       C  0.63984629  0.60750315  0.96641272     0.01500
H1456       H  0.70546355  0.62817806  0.92888970     0.09100
H1457       H  0.62416965  0.59503632  0.98255359     0.08200
N1458       N  0.63026044  0.69742610  0.85294688    -0.35700
N1459       N  0.60104706  0.71089091  0.85025890    -0.27800
C1460       C  0.60086963  0.73065116  0.82528680    -0.03100
C1461       C  0.63131157  0.72958131  0.81164753     0.05500
C1462       C  0.64928222  0.70840096  0.82981784     0.03600
H1463       H  0.58131432  0.74732245  0.81962472     0.08700
H1464       H  0.67521401  0.70389128  0.82817940     0.07600
C1465       C  0.43994163  0.72268757  0.52816612     0.45900
H1466       H  0.44086820  0.72256915  0.55402407    -0.03100
C1467       C  0.43820981  0.72252724  0.96714088     0.46000
H1468       H  0.43727902  0.72260502  0.94128666    -0.03100
C1469       C  0.47264334  0.71461191  0.51276484    -0.16800
C1470       C  0.41669734  0.69700446  0.51454661    -0.16500
C1471       C  0.42920348  0.75564507  0.51431921    -0.16900
C1472       C  0.47182483  0.71388512  0.98048893    -0.16900
C1473       C  0.41547729  0.69706908  0.98194024    -0.16500
C1474       C  0.42861523  0.75540689  0.98193607    -0.16800
N1475       N  0.67944319  0.08227116  0.56889597    -0.26800
N1476       N  0.68378136  0.11160367  0.55690861    -0.34700
C1477       C  0.70853777  0.11100186  0.53651345     0.01500
C1478       C  0.72034092  0.07961890  0.53470793     0.07500
C1479       C  0.70181054  0.06201121  0.55608490    -0.05600
H1480       H  0.71717024  0.13207075  0.52393373     0.08200
H1481       H  0.70394736  0.03630176  0.56128470     0.09400
Cu1482     Cu  0.65260329  0.15009565  0.56393635     0.44200
Cu1483     Cu  0.64101378  0.07356241  0.60075071     0.42000
Cu1484     Cu  0.57397437  0.13520336  0.59647048     0.43900
N1485       N  0.61359571  0.18036874  0.55594851    -0.34200
N1486       N  0.58362959  0.17471069  0.56587047    -0.28500
C1487       C  0.56374688  0.19743829  0.55302315    -0.04600
C1488       C  0.58235320  0.21766242  0.53390976     0.07700
C1489       C  0.61378130  0.20633723  0.53696892     0.01500
H1490       H  0.53774560  0.19895942  0.55694425     0.09100
H1491       H  0.63543088  0.21618266  0.52619506     0.08200
N1492       N  0.57535480  0.09548655  0.62827204    -0.35700
N1493       N  0.59946934  0.07396588  0.63012637    -0.27800
C1494       C  0.59270651  0.05262746  0.65327750    -0.03100
C1495       C  0.56305219  0.06084820  0.66676300     0.05500
C1496       C  0.55278059  0.08805075  0.65013761     0.03600
H1497       H  0.60804288  0.03222217  0.65958829     0.08700
H1498       H  0.53033995  0.10139484  0.65364640     0.07600
N1499       N  0.58583462  0.17881433  0.92854996    -0.26800
N1500       N  0.61529769  0.18290402  0.94035803    -0.34700
C1501       C  0.61513195  0.20786953  0.96055614     0.01500
C1502       C  0.58393124  0.22017267  0.96240400     0.07500
C1503       C  0.56594115  0.20157680  0.94131763    -0.05600
H1504       H  0.63631425  0.21615677  0.97319565     0.08200
H1505       H  0.54017947  0.20386032  0.93639889     0.09400
Cu1506     Cu  0.65340842  0.15114061  0.93337389     0.44200
Cu1507     Cu  0.57645381  0.14000088  0.89703367     0.42000
Cu1508     Cu  0.63858718  0.07322487  0.89933262     0.43900
N1509       N  0.68359476  0.11182695  0.94055593    -0.34200
N1510       N  0.67780310  0.08213603  0.93000828    -0.28500
C1511       C  0.69990385  0.06166245  0.94290222    -0.04600
C1512       C  0.71987344  0.07957263  0.96274919     0.07700
C1513       C  0.70919031  0.11125689  0.95997706     0.01500
H1514       H  0.70097525  0.03568945  0.93870459     0.09100
H1515       H  0.71908466  0.13252175  0.97136592     0.08200
N1516       N  0.59826120  0.07452316  0.86871168    -0.35700
N1517       N  0.57632201  0.09830474  0.86760604    -0.27800
C1518       C  0.55435860  0.09116063  0.84509949    -0.03100
C1519       C  0.56268234  0.06165186  0.83135398     0.05500
C1520       C  0.59059730  0.05187521  0.84704659     0.03600
H1521       H  0.53355059  0.10618412  0.83932481     0.08700
H1522       H  0.60425443  0.02970673  0.84309038     0.07600
N1523       N  0.21020064  0.05026966  0.93787185    -0.26800
N1524       N  0.17889963  0.04908055  0.94510577    -0.34700
C1525       C  0.17351229  0.02153162  0.96132094     0.01500
C1526       C  0.20312939  0.00585217  0.96561661     0.07500
C1527       C  0.22563201  0.02432675  0.94985899    -0.05600
H1528       H  0.14991480  0.01399333  0.96977416     0.08200
H1529       H  0.25158932  0.01996609  0.94823151     0.09400
Cu1530     Cu  0.14719452  0.08874972  0.93927819     0.44200
Cu1531     Cu  0.23137929  0.08704500  0.91313128     0.42000
Cu1532     Cu  0.19001106  0.16272164  0.91698153     0.43900
N1533       N  0.12907009  0.13603508  0.94606460    -0.34200
N1534       N  0.14653253  0.16255878  0.94073943    -0.28500
C1535       C  0.13151547  0.18851744  0.95327838    -0.04600
C1536       C  0.10325301  0.17796494  0.96728784     0.07700
C1537       C  0.10182627  0.14477267  0.96141891     0.01500
H1538       H  0.14109754  0.21308859  0.95316522     0.09100
H1539       H  0.08301814  0.12796926  0.96865303     0.08200
N1540       N  0.22750960  0.15374775  0.88647819    -0.35700
N1541       N  0.24257967  0.12537208  0.88483932    -0.27800
C1542       C  0.26243144  0.12516268  0.86005866    -0.01300
C1543       C  0.25952933  0.15492869  0.84559543     0.05500
C1544       C  0.23741780  0.17261750  0.86281402     0.03600
H1545       H  0.27672907  0.10448930  0.85245801     0.08700
H1546       H  0.22800155  0.19664389  0.85763740     0.07600
N1547       N  0.19823760  0.04136951  0.57494831    -0.26800
N1548       N  0.17143940  0.04464012  0.55825931    -0.34700
C1549       C  0.17113616  0.02183183  0.53593014     0.01500
C1550       C  0.19973788  0.00406383  0.53773827     0.07500
C1551       C  0.21601698  0.01657861  0.56331048    -0.05600
H1552       H  0.15109512  0.01832413  0.52018038     0.08200
H1553       H  0.23936288  0.00873586  0.57232677     0.09400
Cu1554     Cu  0.13963593  0.08356978  0.56279542     0.44200
Cu1555     Cu  0.20820543  0.07206100  0.61189175     0.42000
Cu1556     Cu  0.16082326  0.14839694  0.61554587     0.43900
N1557       N  0.12152483  0.13056690  0.55937940    -0.34200
N1558       N  0.13015971  0.15501947  0.57757374    -0.28500
C1559       C  0.11711907  0.18278143  0.56624042    -0.04600
C1560       C  0.10003955  0.17537825  0.53930200     0.07700
C1561       C  0.10267521  0.14194148  0.53632904     0.01500
H1562       H  0.12042905  0.20667429  0.57641037     0.09100
H1563       H  0.09119507  0.12650170  0.51939092     0.08200
N1564       N  0.19504471  0.13380420  0.64844452    -0.35700
N1565       N  0.21179990  0.10626396  0.64709715    -0.27800
C1566       C  0.23417250  0.10605690  0.66992726    -0.03100
C1567       C  0.23159714  0.13486762  0.68630195     0.05500
C1568       C  0.20659499  0.15188171  0.67209888     0.03600
H1569       H  0.25290022  0.08769504  0.67256531     0.08700
H1570       H  0.19926929  0.17670783  0.67690174     0.07600
C1571       C  0.22072549  0.94467363  0.97005450     0.45900
H1572       H  0.22060990  0.94506445  0.94418613    -0.03100
C1573       C  0.22036591  0.94377402  0.53094774     0.46000
H1574       H  0.22016301  0.94291337  0.55680690    -0.03100
C1575       C  0.19645012  0.92019189  0.98400708    -0.16800
C1576       C  0.25415876  0.93591218  0.98415918    -0.16500
C1577       C  0.21073046  0.97720123  0.98492176    -0.16900
C1578       C  0.19616602  0.91987009  0.51589072    -0.16900
C1579       C  0.25382327  0.93565672  0.51662383    -0.16500
C1580       C  0.21028387  0.97687417  0.51741056    -0.16800
N1581       N  0.31693446  0.20179830  0.79627444    -0.36100
N1582       N  0.27306547  0.16111780  0.76000284    -0.56700
N1583       N  0.30382064  0.18553912  0.70522596    -0.36100
N1584       N  0.34947420  0.22477519  0.74137864    -0.56700
C1585       C  0.30451160  0.18249933  0.81874610     0.27400
C1586       C  0.34239389  0.21794003  0.80884028     0.27500
C1587       C  0.28533071  0.16144388  0.69308469     0.27400
C1588       C  0.32620573  0.19354680  0.68357822     0.27400
C1589       C  0.25922931  0.15788783  0.78824260     0.36100
C1590       C  0.25071443  0.15114151  0.73902727     0.36100
C1591       C  0.36084549  0.24707445  0.76172649     0.36100
C1592       C  0.35519757  0.23689897  0.71277092     0.36100
C1593       C  0.32255109  0.18609248  0.84585805    -0.21400
C1594       C  0.34638836  0.20866804  0.83964082    -0.21400
C1595       C  0.29642375  0.15382495  0.66345299    -0.21400
C1596       C  0.32234360  0.17404729  0.65751676    -0.21400
C1597       C  0.22813062  0.14494946  0.78534179    -0.22500
C1598       C  0.22266272  0.14080498  0.75399697    -0.22500
C1599       C  0.37493529  0.27299597  0.74606409    -0.22500
C1600       C  0.37140270  0.26649281  0.71486353    -0.22500
C1601       C  0.27505326  0.16506115  0.81651921    -0.17800
C1602       C  0.35930619  0.24356575  0.79421210    -0.17800
C1603       C  0.34641268  0.22114269  0.68493256    -0.17800
C1604       C  0.25661200  0.14917855  0.70682913    -0.17800
H1605       H  0.31817246  0.17466670  0.86817912     0.15100
H1606       H  0.36399646  0.21786773  0.85619855     0.15100
H1607       H  0.28639706  0.13639790  0.64721775     0.15100
H1608       H  0.33586826  0.17529893  0.63592043     0.15100
H1609       H  0.21121664  0.13906662  0.80383731     0.13400
H1610       H  0.20083848  0.13087036  0.74349388     0.13400
H1611       H  0.38639842  0.29432393  0.75605895     0.13400
H1612       H  0.37952491  0.28189479  0.69593713     0.13400
H1613       H  0.30555550  0.20763505  0.77543132     0.26600
H1614       H  0.29800203  0.19949188  0.72461320     0.26600
N1615       N  0.46754221  0.30296213  0.92470704    -0.26800
N1616       N  0.46288986  0.32885620  0.94237034    -0.34700
C1617       C  0.48544243  0.32908655  0.96496960     0.01500
C1618       C  0.50441155  0.30131239  0.96231458     0.07500
C1619       C  0.49288834  0.28570253  0.93597618    -0.05600
H1620       H  0.48790658  0.34854075  0.98151456     0.08200
H1621       H  0.50167443  0.26302156  0.92625522     0.09400
Cu1622     Cu  0.42255112  0.35940385  0.93882290     0.44200
Cu1623     Cu  0.43773020  0.29282100  0.88728114     0.42000
Cu1624     Cu  0.35837772  0.33568020  0.88753210     0.43900
N1625       N  0.37502663  0.37679364  0.94240273    -0.34200
N1626       N  0.35064934  0.36672347  0.92480220    -0.28500
C1627       C  0.32250597  0.37908610  0.93599541    -0.04600
C1628       C  0.32957490  0.39737685  0.96224308     0.07700
C1629       C  0.36319192  0.39612784  0.96487757     0.01500
H1630       H  0.29862779  0.37440667  0.92627925     0.09100
H1631       H  0.37832508  0.40872233  0.98136511     0.08200
N1632       N  0.37418915  0.30379276  0.85329237    -0.35700
N1633       N  0.40264251  0.28857614  0.85308576    -0.27800
C1634       C  0.40308033  0.26702233  0.82955169    -0.03100
C1635       C  0.37358695  0.26883714  0.81424117     0.05500
C1636       C  0.35584484  0.29221871  0.82992853     0.03600
H1637       H  0.42210148  0.24918426  0.82582193     0.08700
H1638       H  0.33041998  0.29819001  0.82639836     0.07600
N1639       N  0.45692288  0.28647222  0.56102783    -0.26800
N1640       N  0.45746756  0.31797841  0.55460539    -0.34700
C1641       C  0.48496190  0.32447964  0.53876341     0.01500
C1642       C  0.50125463  0.29538512  0.53376667     0.07500
C1643       C  0.48328105  0.27198985  0.54884017    -0.05600
H1644       H  0.49215845  0.34852492  0.53125994     0.08200
H1645       H  0.48836757  0.24614130  0.55002403     0.09400
Cu1646     Cu  0.41737324  0.34877356  0.56096595     0.44200
Cu1647     Cu  0.42085056  0.26404224  0.58555259     0.42000
Cu1648     Cu  0.34461156  0.30517051  0.58387114     0.43900
N1649       N  0.36997450  0.36638810  0.55445408    -0.34200
N1650       N  0.34367652  0.34871575  0.56009359    -0.28500
C1651       C  0.31738716  0.36375809  0.54815846    -0.04600
C1652       C  0.32752681  0.39226314  0.53424974     0.07700
C1653       C  0.36084115  0.39371336  0.53946272     0.01500
H1654       H  0.29283866  0.35413233  0.54873378     0.09100
H1655       H  0.37742090  0.41273685  0.53231783     0.08200
N1656       N  0.35514655  0.26778687  0.61419003    -0.35700
N1657       N  0.38363041  0.25282601  0.61501213    -0.27800
C1658       C  0.38489834  0.23319681  0.63995450    -0.03100
C1659       C  0.35566109  0.23606217  0.65532647     0.05500
C1660       C  0.33724751  0.25796313  0.63853030     0.03600
H1661       H  0.40594898  0.21914255  0.64702786     0.08700
H1662       H  0.31340442  0.26735265  0.64447108     0.07600
C1663       C  0.56262424  0.27893922  0.53039942     0.45900
H1664       H  0.56130734  0.27776310  0.55621595    -0.03100
C1665       C  0.56491916  0.28133423  0.96955248     0.46000
H1666       H  0.56628055  0.28252861  0.94373677    -0.03100
C1667       C  0.58709701  0.30431090  0.51832272    -0.16800
C1668       C  0.57214086  0.24630491  0.51505737    -0.16500
C1669       C  0.53051695  0.28923272  0.51500401    -0.16900
C1670       C  0.58836425  0.30504741  0.98587519    -0.16900
C1671       C  0.57296784  0.24742492  0.98283167    -0.16500
C1672       C  0.53148218  0.29061283  0.98278864    -0.16800
N1673       N  0.32494812  0.92197035  0.56786847    -0.26800
N1674       N  0.31909720  0.89228652  0.55730978    -0.34700
C1675       C  0.29296153  0.89276459  0.53846516     0.01500
C1676       C  0.28177161  0.92437131  0.53611586     0.07500
C1677       C  0.30231086  0.94232955  0.55551945    -0.05600
H1678       H  0.28313089  0.87151718  0.52698738     0.08200
H1679       H  0.30123845  0.96829719  0.55974825     0.09400
Cu1680     Cu  0.34993071  0.85312678  0.56399976     0.44200
Cu1681     Cu  0.36503824  0.93066417  0.59808710     0.42000
Cu1682     Cu  0.42797916  0.86430946  0.59903034     0.43900
N1683       N  0.38803584  0.82114776  0.55674553    -0.34200
N1684       N  0.41781453  0.82537458  0.56779094    -0.28500
C1685       C  0.43734731  0.80235842  0.55488476    -0.04600
C1686       C  0.41881448  0.78340572  0.53450189     0.07700
C1687       C  0.38766540  0.79577840  0.53699536     0.01500
H1688       H  0.46320664  0.80005390  0.55930706     0.09100
H1689       H  0.36609373  0.78716645  0.52520841     0.08200
N1690       N  0.42777729  0.90530445  0.62943715    -0.35700
N1691       N  0.40554704  0.92885538  0.62894244    -0.27800
C1692       C  0.41284001  0.95076895  0.65144882    -0.03100
C1693       C  0.44072890  0.94073757  0.66711356     0.05500
C1694       C  0.44953679  0.91190374  0.65231129     0.03600
H1695       H  0.39896790  0.97267786  0.65598556     0.08700
H1696       H  0.47055047  0.89697807  0.65762867     0.07600
N1697       N  0.41583148  0.82584636  0.93004343    -0.26800
N1698       N  0.38621529  0.82109372  0.94127233    -0.34700
C1699       C  0.38631342  0.79539802  0.96063514     0.01500
C1700       C  0.41763601  0.78342708  0.96259482     0.07500
C1701       C  0.43575267  0.80288898  0.94240055    -0.05600
H1702       H  0.36497963  0.78630211  0.97250898     0.08200
H1703       H  0.46157398  0.80091172  0.93766226     0.09400
Cu1704     Cu  0.34792026  0.85278226  0.93478806     0.44200
Cu1705     Cu  0.42558469  0.86514621  0.89929450     0.42000
Cu1706     Cu  0.36298184  0.93082860  0.90029185     0.43900
N1707       N  0.31805120  0.89232703  0.94222280    -0.34200
N1708       N  0.32373079  0.92195417  0.93139410    -0.28500
C1709       C  0.30158734  0.94244281  0.94427475    -0.04600
C1710       C  0.28170169  0.92463489  0.96435789     0.07700
C1711       C  0.29260113  0.89298873  0.96183558     0.01500
H1712       H  0.30042842  0.96838635  0.93992318     0.09100
H1713       H  0.28293197  0.87179891  0.97354364     0.08200
N1714       N  0.40363771  0.92976981  0.86960406    -0.35700
N1715       N  0.42591998  0.90629418  0.86923960    -0.27800
C1716       C  0.44802789  0.91311128  0.84675766    -0.03100
C1717       C  0.43944354  0.94206402  0.83205058     0.05500
C1718       C  0.41123871  0.95190618  0.84735413     0.03600
H1719       H  0.46907512  0.89818945  0.84157902     0.08700
H1720       H  0.39734982  0.97378552  0.84271559     0.07600
loop_ 
_geom_bond_atom_site_label_1 
_geom_bond_atom_site_label_2 
_geom_bond_distance 
_geom_bond_site_symmetry_2 
_ccdc_geom_bond_type 
N1            C6   1.361       .  A
N1            C5   1.361   1_655  A
N1           H33   1.029       .  S
N2            C9   1.360       .  A
N2           C10   1.359       .  A
N3            C8   1.363   1_455  A
N3            C7   1.362       .  A
N3           H34   1.032       .  S
N4           C11   1.360       .  A
N4           C12   1.361       .  A
C5           C13   1.388       .  A
C5           C21   1.432       .  A
C6           C22   1.432       .  A
C6           C14   1.388       .  A
C7           C15   1.388       .  A
C7           C24   1.433       .  A
C8           C23   1.433       .  A
C8           C16   1.388       .  A
C9           C21   1.432       .  A
C9           C17   1.386       .  A
C10          C24   1.431       .  A
C10          C18   1.387       .  A
C11          C19   1.387       .  A
C11          C22   1.434       .  A
C12          C20   1.386       .  A
C12          C23   1.433       .  A
C13          C14   1.377   1_455  A
C13          H25   1.082       .  S
C14          H26   1.082       .  S
C15          C16   1.378   1_455  A
C15          H27   1.082       .  S
C16          H28   1.082       .  S
C17          C18   1.379       .  A
C17          H29   1.082       .  S
C18          H30   1.082       .  S
C19          C20   1.380       .  A
C19          H31   1.082       .  S
C20          H32   1.082       .  S
C21         C229   1.510       .  S
C22         C427   1.509       .  S
C23         C403   1.513       .  S
C24         C205   1.508       .  S
N35          C39   1.347       .  A
N35          N36   1.319       .  A
N35         Cu43   2.062       .  S
N36          C37   1.338       .  A
N36         Cu42   2.065       .  S
C37          C38   1.381       .  A
C37          H40   1.074       .  S
C38          C39   1.385       .  A
C38          C91   1.477   1_655  S
C39          H41   1.082       .  S
Cu42         N45   2.065       .  S
Cu43         N53   2.064       .  S
Cu44         N46   2.079       .  S
Cu44         N52   2.082       .  S
N45          C49   1.339       .  A
N45          N46   1.319       .  A
N46          C47   1.351       .  A
C47          C48   1.389       .  A
C47          H50   1.082       .  S
C48          C49   1.381       .  A
C48         C520   1.484       .  S
C49          H51   1.074       .  S
N52          C56   1.342       .  A
N52          N53   1.324       .  A
N53          C54   1.343       .  A
C54          C55   1.380       .  A
C54          H57   1.082       .  S
C55          C56   1.382       .  A
C55         C114   1.471       .  S
C56          H58   1.082       .  S
N59          C63   1.340       .  A
N59          N60   1.321       .  A
N59         Cu67   2.035       .  S
N60          C61   1.345       .  A
N60         Cu66   2.092       .  S
C61          C62   1.386       .  A
C61          H64   1.080       .  S
C62          C63   1.372       .  A
C62          C88   1.469   1_655  S
C63          H65   1.082       .  S
Cu66         N69   2.092       .  S
Cu67         N77   2.034       .  S
Cu68         N70   2.051       .  S
Cu68         N76   2.051       .  S
N69          C73   1.345       .  A
N69          N70   1.323       .  A
N70          C71   1.343       .  A
C71          C72   1.375       .  A
C71          H74   1.082       .  S
C72          C73   1.384       .  A
C72         C517   1.471       .  S
C73          H75   1.079       .  S
N76          C80   1.340       .  A
N76          N77   1.320       .  A
N77          C78   1.339       .  A
C78          C79   1.373       .  A
C78          H81   1.082       .  S
C79          C80   1.378       .  A
C79         C115   1.460       .  S
C80          H82   1.082       .  S
C83          H84   1.112       .  S
C83          C89   1.541       .  S
C83          C88   1.533       .  S
C83          C87   1.534       .  S
C85          H86   1.112       .  S
C85          C91   1.531       .  S
C85          C90   1.538       .  S
C85          C92   1.536       .  S
C87         C700   1.482       .  S
C87         C950   1.379   1_554  D
C88         C951   1.376   1_554  D
C89         C198   1.489       .  S
C89         C952   1.378   1_554  D
C90         C676   1.476       .  S
C90         C947   1.380       .  D
C91         C948   1.376       .  D
C92         C222   1.484       .  S
C92         C949   1.378       .  D
N93          C98   1.350       .  A
N93          C97   1.348       .  A
N93         H125   1.038       .  S
N94         C101   1.346       .  A
N94         C102   1.349       .  A
N95         C100   1.348       .  A
N95          C99   1.350       .  A
N95         H126   1.037       .  S
N96         C103   1.349       .  A
N96         C104   1.346       .  A
C97         C105   1.387       .  A
C97         C113   1.405       .  A
C98         C114   1.409       .  A
C98         C106   1.387       .  A
C99         C107   1.388       .  A
C99         C116   1.410       .  A
C100        C115   1.406       .  A
C100        C108   1.386       .  A
C101        C113   1.407       .  A
C101        C109   1.387       .  A
C102        C116   1.405       .  A
C102        C110   1.385       .  A
C103        C111   1.384       .  A
C103        C114   1.405       .  A
C104        C112   1.388       .  A
C104        C115   1.408       .  A
C105        C106   1.370       .  A
C105        H117   1.082       .  S
C106        H118   1.081       .  S
C107        C108   1.373       .  A
C107        H119   1.081       .  S
C108        H120   1.082       .  S
C109        C110   1.374       .  A
C109        H121   1.082       .  S
C110        H122   1.082       .  S
C111        C112   1.374       .  A
C111        H123   1.082       .  S
C112        H124   1.082       .  S
C113        C147   1.459       .  S
C116        C171   1.472       .  S
N127        C131   1.341       .  A
N127        N128   1.322       .  A
N127       Cu135   2.037       .  S
N128        C129   1.344       .  A
N128       Cu134   2.089       .  S
C129        C130   1.385       .  A
C129        H132   1.079       .  S
C130        C131   1.374       .  A
C130        C184   1.468       .  S
C131        H133   1.082       .  S
Cu134       N137   2.089       .  S
Cu135       N145   2.036       .  S
Cu136       N138   2.049       .  S
Cu136       N144   2.048       .  S
N137        C141   1.345       .  A
N137        N138   1.322       .  A
N138        C139   1.342       .  A
C139        C140   1.375       .  A
C139        H142   1.082       .  S
C140        C141   1.385       .  A
C140        C810   1.471       .  S
C141        H143   1.081       .  S
N144        C148   1.339       .  A
N144        N145   1.320       .  A
N145        C146   1.340       .  A
C146        C147   1.374       .  A
C146        H149   1.082       .  S
C147        C148   1.376       .  A
C148        H150   1.082       .  S
N151        C155   1.347       .  A
N151        N152   1.319       .  A
N151       Cu159   2.057       .  S
N152        C153   1.342       .  A
N152       Cu158   2.081       .  S
C153        C154   1.385       .  A
C153        H156   1.075       .  S
C154        C155   1.382       .  A
C154        C181   1.481       .  S
C155        H157   1.082       .  S
Cu158       N161   2.081       .  S
Cu159       N169   2.059       .  S
Cu160       N162   2.084       .  S
Cu160       N168   2.085       .  S
N161        C165   1.341       .  A
N161        N162   1.321       .  A
N162        C163   1.352       .  A
C163        C164   1.389       .  A
C163        H166   1.082       .  S
C164        C165   1.384       .  A
C164        C807   1.490       .  S
C165        H167   1.074       .  S
N168        C172   1.343       .  A
N168        N169   1.324       .  A
N169        C170   1.343       .  A
C170        C171   1.378       .  A
C170        H173   1.082       .  S
C171        C172   1.382       .  A
C172        H174   1.082       .  S
C175        H176   1.112       .  S
C175        C181   1.535       .  S
C175        C180   1.544       .  S
C175        C179   1.540       .  S
C177        H178   1.112       .  S
C177        C183   1.541       .  S
C177        C182   1.538       .  S
C177        C184   1.534       .  S
C179        C570   1.477       .  S
C179       C1042   1.378   1_554  D
C180        C396   1.493       .  S
C180       C1043   1.380   1_554  D
C181       C1044   1.376   1_554  D
C182        C594   1.487       .  S
C182       C1039   1.378       .  D
C183        C420   1.492       .  S
C183       C1040   1.380       .  D
C184       C1041   1.376       .  D
N185        C189   1.356       .  A
N185        N186   1.323       .  A
N185       Cu193   2.127       .  S
N186        C187   1.344       .  A
N186       Cu192   2.067       .  S
C187        C188   1.379       .  A
C187        H190   1.080       .  S
C188        C189   1.395       .  A
C188        C382   1.492       .  S
C189        H191   1.082       .  S
Cu192       N195   2.067       .  S
Cu193       N203   2.129       .  S
Cu194       N196   2.116       .  S
Cu194       N202   2.117       .  S
N195        C199   1.343       .  A
N195        N196   1.322       .  A
N196        C197   1.355       .  A
C197        C198   1.393       .  A
C197        H200   1.082       .  S
C198        C199   1.380       .  A
C199        H201   1.080       .  S
N202        C206   1.353       .  A
N202        N203   1.328       .  A
N203        C204   1.355       .  A
C204        C205   1.392       .  A
C204        H207   1.082       .  S
C205        C206   1.388       .  A
C206        H208   1.082       .  S
N209        C213   1.358       .  A
N209        N210   1.321       .  A
N209       Cu217   2.135       .  S
N210        C211   1.342       .  A
N210       Cu216   2.056       .  S
C211        C212   1.378       .  A
C211        H214   1.079       .  S
C212        C213   1.398       .  A
C212        C379   1.494       .  S
C213        H215   1.082       .  S
Cu216       N219   2.054       .  S
Cu217       N227   2.137       .  S
Cu218       N220   2.114       .  S
Cu218       N226   2.117       .  S
N219        C223   1.341       .  A
N219        N220   1.321       .  A
N220        C221   1.355       .  A
C221        C222   1.393       .  A
C221        H224   1.082       .  S
C222        C223   1.376       .  A
C223        H225   1.079       .  S
N226        C230   1.353       .  A
N226        N227   1.329       .  A
N227        C228   1.356       .  A
C228        C229   1.393       .  A
C228        H231   1.082       .  S
C229        C230   1.389       .  A
C230        H232   1.082       .  S
N233        C237   1.349       .  A
N233        N234   1.320       .  A
N233       Cu241   2.064       .  S
N234        C235   1.342       .  A
N234       Cu240   2.090       .  S
C235        C236   1.386   1_455  A
C235        H238   1.074       .  S
C236        C237   1.384   1_655  A
C236        C287   1.487       .  S
C237        H239   1.082       .  S
Cu240       N243   2.091       .  S
Cu241       N251   2.064       .  S
Cu242       N244   2.077       .  S
Cu242       N250   2.078       .  S
N243        C247   1.343       .  A
N243        N244   1.321       .  A
N244        C245   1.350       .  A
C245        C246   1.386       .  A
C245        H248   1.082       .  S
C246        C247   1.386       .  A
C246        C715   1.488       .  S
C247        H249   1.076       .  S
N250        C254   1.343       .  A
N250        N251   1.324       .  A
N251        C252   1.344       .  A
C252        C253   1.379       .  A
C252        H255   1.082       .  S
C253        C254   1.381       .  A
C253        C314   1.471       .  S
C254        H256   1.082       .  S
N257        C261   1.341       .  A
N257        N258   1.321       .  A
N257       Cu265   2.035       .  S
N258        C259   1.344       .  A
N258       Cu264   2.093       .  S
C259        C260   1.387       .  A
C259        H262   1.078       .  S
C260        C261   1.374       .  A
C260        C290   1.471   1_455  S
C261        H263   1.082       .  S
Cu264       N267   2.093       .  S
Cu265       N275   2.035       .  S
Cu266       N268   2.048       .  S
Cu266       N274   2.047       .  S
N267        C271   1.345       .  A
N267        N268   1.323       .  A
N268        C269   1.343       .  A
C269        C270   1.375       .  A
C269        H272   1.082       .  S
C270        C271   1.385       .  A
C270        C718   1.471       .  S
C271        H273   1.080       .  S
N274        C278   1.339       .  A
N274        N275   1.320       .  A
N275        C276   1.340       .  A
C276        C277   1.373       .  A
C276        H279   1.082       .  S
C277        C278   1.376       .  A
C277        C311   1.458       .  S
C278        H280   1.082       .  S
C281        H282   1.112       .  S
C281        C287   1.536       .  S
C281        C286   1.542       .  S
C281        C285   1.537       .  S
C283        H284   1.112       .  S
C283        C289   1.542       .  S
C283        C288   1.536       .  S
C283        C290   1.536       .  S
C285        C478   1.470       .  S
C285       C1148   1.377       .  D
C286        C410   1.491       .  S
C286       C1149   1.381       .  D
C287       C1150   1.377       .  D
C288        C502   1.488       .  S
C288       C1145   1.377   1_554  D
C289        C386   1.491       .  S
C289       C1146   1.381   1_554  D
C290       C1147   1.378   1_554  D
N291        C296   1.350       .  A
N291        C295   1.347       .  A
N291        H323   1.038       .  S
N292        C299   1.345       .  A
N292        C300   1.349       .  A
N293        C298   1.348       .  A
N293        C297   1.350       .  A
N293        H324   1.038       .  S
N294        C301   1.349       .  A
N294        C302   1.345       .  A
C295        C303   1.387       .  A
C295        C311   1.405       .  A
C296        C312   1.406       .  A
C296        C304   1.387       .  A
C297        C305   1.386       .  A
C297        C314   1.408       .  A
C298        C313   1.407       .  A
C298        C306   1.388       .  A
C299        C311   1.406       .  A
C299        C307   1.388       .  A
C300        C314   1.405       .  A
C300        C308   1.385       .  A
C301        C309   1.384       .  A
C301        C312   1.404       .  A
C302        C310   1.388       .  A
C302        C313   1.407       .  A
C303        C304   1.372       .  A
C303        H315   1.082       .  S
C304        H316   1.081       .  S
C305        C306   1.372       .  A
C305        H317   1.082       .  S
C306        H318   1.082       .  S
C307        C308   1.374       .  A
C307        H319   1.082       .  S
C308        H320   1.082       .  S
C309        C310   1.375       .  A
C309        H321   1.082       .  S
C310        H322   1.082       .  S
C312        C345   1.469       .  S
C313        C369   1.459       .  S
N325        C329   1.346       .  A
N325        N326   1.321       .  A
N325       Cu333   2.057       .  S
N326        C327   1.342       .  A
N326       Cu332   2.088       .  S
C327        C328   1.385       .  A
C327        H330   1.076       .  S
C328        C329   1.380       .  A
C328        C381   1.479       .  S
C329        H331   1.082       .  S
Cu332       N335   2.090       .  S
Cu333       N343   2.058       .  S
Cu334       N336   2.065       .  S
Cu334       N342   2.067       .  S
N335        C339   1.344       .  A
N335        N336   1.321       .  A
N336        C337   1.347       .  A
C337        C338   1.382       .  A
C337        H340   1.082       .  S
C338        C339   1.387       .  A
C338        C610   1.483       .  S
C339        H341   1.076       .  S
N342        C346   1.342       .  A
N342        N343   1.322       .  A
N343        C344   1.343       .  A
C344        C345   1.380       .  A
C344        H347   1.082       .  S
C345        C346   1.381       .  A
C346        H348   1.082       .  S
N349        C353   1.342       .  A
N349        N350   1.321       .  A
N349       Cu357   2.039       .  S
N350        C351   1.343       .  A
N350       Cu356   2.092       .  S
C351        C352   1.386       .  A
C351        H354   1.076       .  S
C352        C353   1.376       .  A
C352        C378   1.474       .  S
C353        H355   1.082       .  S
Cu356       N359   2.091       .  S
Cu357       N367   2.039       .  S
Cu358       N360   2.052       .  S
Cu358       N366   2.051       .  S
N359        C363   1.345       .  A
N359        N360   1.322       .  A
N360        C361   1.344       .  A
C361        C362   1.377       .  A
C361        H364   1.082       .  S
C362        C363   1.385       .  A
C362        C613   1.474       .  S
C363        H365   1.079       .  S
N366        C370   1.339       .  A
N366        N367   1.321       .  A
N367        C368   1.341       .  A
C368        C369   1.374       .  A
C368        H371   1.082       .  S
C369        C370   1.376       .  A
C370        H372   1.082       .  S
C373        H374   1.112       .  S
C373        C379   1.543       .  S
C373        C378   1.534       .  S
C373        C377   1.539       .  S
C375        H376   1.112       .  S
C375        C381   1.535       .  S
C375        C380   1.537       .  S
C375        C382   1.541       .  S
C377        C768   1.485       .  S
C377       C1240   1.378       .  D
C378       C1241   1.377       .  D
C379       C1242   1.381       .  D
C380        C792   1.476       .  S
C380       C1237   1.378   1_554  D
C381       C1238   1.376   1_554  D
C382       C1239   1.381   1_554  D
N383        C387   1.357       .  A
N383        N384   1.321       .  A
N383       Cu391   2.129       .  S
N384        C385   1.341       .  A
N384       Cu390   2.055       .  S
C385        C386   1.377       .  A
C385        H388   1.079       .  S
C386        C387   1.397       .  A
C387        H389   1.082       .  S
Cu390       N393   2.055       .  S
Cu391       N401   2.133       .  S
Cu392       N394   2.134       .  S
Cu392       N400   2.137       .  S
N393        C397   1.342       .  A
N393        N394   1.321       .  A
N394        C395   1.358       .  A
C395        C396   1.398       .  A
C395        H398   1.082       .  S
C396        C397   1.378       .  A
C397        H399   1.080       .  S
N400        C404   1.356       .  A
N400        N401   1.329       .  A
N401        C402   1.356       .  A
C402        C403   1.392       .  A
C402        H405   1.082       .  S
C403        C404   1.392       .  A
C404        H406   1.082       .  S
N407        C411   1.355       .  A
N407        N408   1.322       .  A
N407       Cu415   2.118       .  S
N408        C409   1.344       .  A
N408       Cu414   2.066       .  S
C409        C410   1.380       .  A
C409        H412   1.080       .  S
C410        C411   1.394       .  A
C411        H413   1.082       .  S
Cu414       N417   2.066       .  S
Cu415       N425   2.120       .  S
Cu416       N418   2.129       .  S
Cu416       N424   2.131       .  S
N417        C421   1.344       .  A
N417        N418   1.323       .  A
N418        C419   1.357       .  A
C419        C420   1.396       .  A
C419        H422   1.082       .  S
C420        C421   1.379       .  A
C421        H423   1.080       .  S
N424        C428   1.355       .  A
N424        N425   1.328       .  A
N425        C426   1.353       .  A
C426        C427   1.389       .  A
C426        H429   1.082       .  S
C427        C428   1.392       .  A
C428        H430   1.082       .  S
N431        C436   1.361       .  A
N431        C435   1.361   1_545  A
N431        H463   1.030       .  S
N432        C439   1.361       .  A
N432        C440   1.361       .  A
N433        C438   1.361       .  A
N433        C437   1.361   1_545  A
N433        H464   1.032       .  S
N434        C441   1.360       .  A
N434        C442   1.360       .  A
C435        C443   1.388       .  A
C435        C451   1.431       .  A
C436        C452   1.430       .  A
C436        C444   1.387       .  A
C437        C445   1.387       .  A
C437        C454   1.431       .  A
C438        C453   1.431       .  A
C438        C446   1.388       .  A
C439        C451   1.432       .  A
C439        C447   1.387       .  A
C440        C454   1.431       .  A
C440        C448   1.386       .  A
C441        C449   1.386       .  A
C441        C452   1.430       .  A
C442        C450   1.387       .  A
C442        C453   1.430       .  A
C443        C444   1.378   1_565  A
C443        H455   1.082       .  S
C444        H456   1.082       .  S
C445        C446   1.378   1_565  A
C445        H457   1.082       .  S
C446        H458   1.082       .  S
C447        C448   1.379       .  A
C447        H459   1.082       .  S
C448        H460   1.082       .  S
C449        C450   1.378       .  A
C449        H461   1.082       .  S
C450        H462   1.082       .  S
C451        C833   1.509       .  S
C452        C635   1.508       .  S
C453        C659   1.507       .  S
C454        C857   1.510       .  S
N465        C469   1.340       .  A
N465        N466   1.321       .  A
N465       Cu473   2.031       .  S
N466        C467   1.343       .  A
N466       Cu472   2.086       .  S
C467        C468   1.385       .  A
C467        H470   1.079       .  S
C468        C469   1.373       .  A
C468        C521   1.467   1_565  S
C469        H471   1.082       .  S
Cu472       N475   2.087       .  S
Cu473       N483   2.031       .  S
Cu474       N476   2.055       .  S
Cu474       N482   2.054       .  S
N475        C479   1.345       .  A
N475        N476   1.323       .  A
N476        C477   1.343       .  A
C477        C478   1.376       .  A
C477        H480   1.082       .  S
C478        C479   1.383       .  A
C479        H481   1.081       .  S
N482        C486   1.341       .  A
N482        N483   1.320       .  A
N483        C484   1.339       .  A
C484        C485   1.373       .  A
C484        H487   1.082       .  S
C485        C486   1.379       .  A
C485        C546   1.462       .  S
C486        H488   1.082       .  S
N489        C493   1.347       .  A
N489        N490   1.319       .  A
N489       Cu497   2.061       .  S
N490        C491   1.340       .  A
N490       Cu496   2.075       .  S
C491        C492   1.383       .  A
C491        H494   1.074       .  S
C492        C493   1.384       .  A
C492        C518   1.480   1_565  S
C493        H495   1.082       .  S
Cu496       N499   2.076       .  S
Cu497       N507   2.063       .  S
Cu498       N500   2.086       .  S
Cu498       N506   2.088       .  S
N499        C503   1.341       .  A
N499        N500   1.321       .  A
N500        C501   1.352       .  A
C501        C502   1.388       .  A
C501        H504   1.082       .  S
C502        C503   1.383       .  A
C503        H505   1.076       .  S
N506        C510   1.344       .  A
N506        N507   1.324       .  A
N507        C508   1.343       .  A
C508        C509   1.379       .  A
C508        H511   1.082       .  S
C509        C510   1.383       .  A
C509        C543   1.475       .  S
C510        H512   1.082       .  S
C513        H514   1.112       .  S
C513        C519   1.538       .  S
C513        C518   1.531       .  S
C513        C517   1.536       .  S
C515        H516   1.112       .  S
C515        C521   1.533       .  S
C515        C520   1.534       .  S
C515        C522   1.538       .  S
C517       C1380   1.378   1_554  D
C518       C1381   1.377   1_554  D
C519        C618   1.489       .  S
C519       C1382   1.379   1_554  D
C520       C1377   1.379       .  D
C521       C1378   1.377       .  D
C522        C652   1.484       .  S
C522       C1379   1.379       .  D
N523        C528   1.348       .  A
N523        C527   1.351       .  A
N523        H555   1.036       .  S
N524        C531   1.350       .  A
N524        C532   1.346       .  A
N525        C530   1.350       .  A
N525        C529   1.349       .  A
N525        H556   1.038       .  S
N526        C533   1.347       .  A
N526        C534   1.350       .  A
C527        C535   1.388       .  A
C527        C543   1.411       .  A
C528        C544   1.407       .  A
C528        C536   1.387       .  A
C529        C537   1.388       .  A
C529        C546   1.408       .  A
C530        C545   1.408       .  A
C530        C538   1.386       .  A
C531        C543   1.407       .  A
C531        C539   1.385       .  A
C532        C546   1.409       .  A
C532        C540   1.388       .  A
C533        C541   1.388       .  A
C533        C544   1.409       .  A
C534        C542   1.384       .  A
C534        C545   1.405       .  A
C535        C536   1.371       .  A
C535        H547   1.081       .  S
C536        H548   1.082       .  S
C537        C538   1.370       .  A
C537        H549   1.082       .  S
C538        H550   1.082       .  S
C539        C540   1.374       .  A
C539        H551   1.082       .  S
C540        H552   1.082       .  S
C541        C542   1.374       .  A
C541        H553   1.082       .  S
C542        H554   1.082       .  S
C544        C577   1.461       .  S
C545        C601   1.473       .  S
N557        C561   1.340       .  A
N557        N558   1.323       .  A
N557       Cu565   2.037       .  S
N558        C559   1.345       .  A
N558       Cu564   2.098       .  S
C559        C560   1.385       .  A
C559        H562   1.081       .  S
C560        C561   1.371       .  A
C560        C609   1.467       .  S
C561        H563   1.082       .  S
Cu564       N567   2.099       .  S
Cu565       N575   2.036       .  S
Cu566       N568   2.050       .  S
Cu566       N574   2.050       .  S
N567        C571   1.347       .  A
N567        N568   1.322       .  A
N568        C569   1.343       .  A
C569        C570   1.376       .  A
C569        H572   1.082       .  S
C570        C571   1.388       .  A
C571        H573   1.080       .  S
N574        C578   1.338       .  A
N574        N575   1.320       .  A
N575        C576   1.342       .  A
C576        C577   1.375       .  A
C576        H579   1.082       .  S
C577        C578   1.376       .  A
C578        H580   1.082       .  S
N581        C585   1.350       .  A
N581        N582   1.320       .  A
N581       Cu589   2.071       .  S
N582        C583   1.338       .  A
N582       Cu588   2.075       .  S
C583        C584   1.383       .  A
C583        H586   1.073       .  S
C584        C585   1.387       .  A
C584        C612   1.486       .  S
C585        H587   1.082       .  S
Cu588       N591   2.075       .  S
Cu589       N599   2.072       .  S
Cu590       N592   2.076       .  S
Cu590       N598   2.079       .  S
N591        C595   1.341       .  A
N591        N592   1.319       .  A
N592        C593   1.351       .  A
C593        C594   1.388       .  A
C593        H596   1.082       .  S
C594        C595   1.384       .  A
C595        H597   1.075       .  S
N598        C602   1.342       .  A
N598        N599   1.325       .  A
N599        C600   1.345       .  A
C600        C601   1.381       .  A
C600        H603   1.082       .  S
C601        C602   1.381       .  A
C602        H604   1.082       .  S
C605        H606   1.112       .  S
C605        C611   1.541       .  S
C605        C610   1.537       .  S
C605        C609   1.532       .  S
C607        H608   1.112       .  S
C607        C613   1.538       .  S
C607        C612   1.535       .  S
C607        C614   1.542       .  S
C609       C1472   1.378   1_554  D
C610       C1473   1.376   1_554  D
C611        C826   1.495       .  S
C611       C1474   1.381   1_554  D
C612       C1469   1.378       .  D
C613       C1470   1.377       .  D
C614        C840   1.490       .  S
C614       C1471   1.381       .  D
N615        C619   1.356       .  A
N615        N616   1.321       .  A
N615       Cu623   2.121       .  S
N616        C617   1.342       .  A
N616       Cu622   2.056       .  S
C617        C618   1.378       .  A
C617        H620   1.079       .  S
C618        C619   1.395       .  A
C619        H621   1.082       .  S
Cu622       N625   2.056       .  S
Cu623       N633   2.124       .  S
Cu624       N626   2.126       .  S
Cu624       N632   2.128       .  S
N625        C629   1.342       .  A
N625        N626   1.322       .  A
N626        C627   1.357       .  A
C627        C628   1.395       .  A
C627        H630   1.082       .  S
C628        C629   1.377       .  A
C628        C808   1.489       .  S
C629        H631   1.080       .  S
N632        C636   1.354       .  A
N632        N633   1.329       .  A
N633        C634   1.354       .  A
C634        C635   1.390       .  A
C634        H637   1.082       .  S
C635        C636   1.390       .  A
C636        H638   1.082       .  S
N639        C643   1.357       .  A
N639        N640   1.321       .  A
N639       Cu647   2.130       .  S
N640        C641   1.343       .  A
N640       Cu646   2.057       .  S
C641        C642   1.378       .  A
C641        H644   1.080       .  S
C642        C643   1.397       .  A
C642        C811   1.493       .  S
C643        H645   1.082       .  S
Cu646       N649   2.056       .  S
Cu647       N657   2.132       .  S
Cu648       N650   2.113       .  S
Cu648       N656   2.116       .  S
N649        C653   1.341       .  A
N649        N650   1.321       .  A
N650        C651   1.354       .  A
C651        C652   1.393       .  A
C651        H654   1.082       .  S
C652        C653   1.377       .  A
C653        H655   1.080       .  S
N656        C660   1.353       .  A
N656        N657   1.329       .  A
N657        C658   1.354       .  A
C658        C659   1.391       .  A
C658        H661   1.082       .  S
C659        C660   1.388       .  A
C660        H662   1.082       .  S
N663        C667   1.341       .  A
N663        N664   1.322       .  A
N663       Cu671   2.040       .  S
N664        C665   1.346       .  A
N664       Cu670   2.098       .  S
C665        C666   1.387       .  A
C665        H668   1.079       .  S
C666        C667   1.373       .  A
C666        C717   1.472   1_545  S
C667        H669   1.082       .  S
Cu670       N673   2.097       .  S
Cu671       N681   2.040       .  S
Cu672       N674   2.055       .  S
Cu672       N680   2.054       .  S
N673        C677   1.346       .  A
N673        N674   1.323       .  A
N674        C675   1.344       .  A
C675        C676   1.376       .  A
C675        H678   1.082       .  S
C676        C677   1.386       .  A
C677        H679   1.080       .  S
N680        C684   1.341       .  A
N680        N681   1.320       .  A
N681        C682   1.341       .  A
C682        C683   1.375       .  A
C682        H685   1.082       .  S
C683        C684   1.377       .  A
C683        C741   1.463       .  S
C684        H686   1.082       .  S
N687        C691   1.348       .  A
N687        N688   1.319       .  A
N687       Cu695   2.069       .  S
N688        C689   1.341       .  A
N688       Cu694   2.072       .  S
C689        C690   1.384       .  A
C689        H692   1.075       .  S
C690        C691   1.385       .  A
C690        C720   1.482   1_545  S
C691        H693   1.082       .  S
Cu694       N697   2.071       .  S
Cu695       N705   2.071       .  S
Cu696       N698   2.074       .  S
Cu696       N704   2.076       .  S
N697        C701   1.340       .  A
N697        N698   1.320       .  A
N698        C699   1.348       .  A
C699        C700   1.386       .  A
C699        H702   1.082       .  S
C700        C701   1.382       .  A
C701        H703   1.074       .  S
N704        C708   1.344       .  A
N704        N705   1.324       .  A
N705        C706   1.343       .  A
C706        C707   1.380       .  A
C706        H709   1.082       .  S
C707        C708   1.382       .  A
C707        C744   1.474       .  S
C708        H710   1.082       .  S
C711        H712   1.112       .  S
C711        C717   1.535       .  S
C711        C716   1.542       .  S
C711        C715   1.536       .  S
C713        H714   1.112       .  S
C713        C719   1.541       .  S
C713        C718   1.538       .  S
C713        C720   1.534       .  S
C715       C1578   1.377       .  D
C716        C850   1.487       .  S
C716       C1579   1.380       .  D
C717       C1580   1.377       .  D
C718       C1575   1.377   1_554  D
C719        C816   1.492       .  S
C719       C1576   1.379   1_554  D
C720       C1577   1.377   1_554  D
N721        C726   1.349       .  A
N721        C725   1.349       .  A
N721        H753   1.038       .  S
N722        C729   1.346       .  A
N722        C730   1.349       .  A
N723        C728   1.348       .  A
N723        C727   1.351       .  A
N723        H754   1.039       .  S
N724        C731   1.349       .  A
N724        C732   1.346       .  A
C725        C733   1.388       .  A
C725        C741   1.407       .  A
C726        C742   1.407       .  A
C726        C734   1.387       .  A
C727        C735   1.388       .  A
C727        C744   1.411       .  A
C728        C743   1.405       .  A
C728        C736   1.386       .  A
C729        C741   1.408       .  A
C729        C737   1.387       .  A
C730        C744   1.407       .  A
C730        C738   1.385       .  A
C731        C739   1.385       .  A
C731        C742   1.404       .  A
C732        C740   1.387       .  A
C732        C743   1.406       .  A
C733        C734   1.373       .  A
C733        H745   1.082       .  S
C734        H746   1.082       .  S
C735        C736   1.372       .  A
C735        H747   1.080       .  S
C736        H748   1.082       .  S
C737        C738   1.376       .  A
C737        H749   1.082       .  S
C738        H750   1.082       .  S
C739        C740   1.375       .  A
C739        H751   1.082       .  S
C740        H752   1.082       .  S
C742        C775   1.468       .  S
C743        C799   1.461       .  S
N755        C759   1.347       .  A
N755        N756   1.320       .  A
N755       Cu763   2.059       .  S
N756        C757   1.341       .  A
N756       Cu762   2.082       .  S
C757        C758   1.384       .  A
C757        H760   1.074       .  S
C758        C759   1.382       .  A
C758        C812   1.481       .  S
C759        H761   1.082       .  S
Cu762       N765   2.083       .  S
Cu763       N773   2.061       .  S
Cu764       N766   2.069       .  S
Cu764       N772   2.071       .  S
N765        C769   1.342       .  A
N765        N766   1.320       .  A
N766        C767   1.349       .  A
C767        C768   1.384       .  A
C767        H770   1.082       .  S
C768        C769   1.385       .  A
C769        H771   1.075       .  S
N772        C776   1.341       .  A
N772        N773   1.323       .  A
N773        C774   1.343       .  A
C774        C775   1.379       .  A
C774        H777   1.082       .  S
C775        C776   1.380       .  A
C776        H778   1.082       .  S
N779        C783   1.340       .  A
N779        N780   1.322       .  A
N779       Cu787   2.036       .  S
N780        C781   1.344       .  A
N780       Cu786   2.093       .  S
C781        C782   1.385       .  A
C781        H784   1.079       .  S
C782        C783   1.373       .  A
C782        C809   1.468       .  S
C783        H785   1.082       .  S
Cu786       N789   2.093       .  S
Cu787       N797   2.036       .  S
Cu788       N790   2.057       .  S
Cu788       N796   2.057       .  S
N789        C793   1.346       .  A
N789        N790   1.322       .  A
N790        C791   1.344       .  A
C791        C792   1.377       .  A
C791        H794   1.082       .  S
C792        C793   1.386       .  A
C793        H795   1.080       .  S
N796        C800   1.340       .  A
N796        N797   1.320       .  A
N797        C798   1.342       .  A
C798        C799   1.375       .  A
C798        H801   1.082       .  S
C799        C800   1.377       .  A
C800        H802   1.082       .  S
C803        H804   1.112       .  S
C803        C809   1.534       .  S
C803        C808   1.543       .  S
C803        C807   1.537       .  S
C805        H806   1.112       .  S
C805        C811   1.539       .  S
C805        C810   1.538       .  S
C805        C812   1.533       .  S
C807       C1670   1.379   1_554  D
C808       C1671   1.380   1_554  D
C809       C1672   1.377   1_554  D
C810       C1667   1.379       .  D
C811       C1668   1.380       .  D
C812       C1669   1.376       .  D
N813        C817   1.356       .  A
N813        N814   1.322       .  A
N813       Cu821   2.122       .  S
N814        C815   1.343       .  A
N814       Cu820   2.064       .  S
C815        C816   1.379       .  A
C815        H818   1.080       .  S
C816        C817   1.395       .  A
C817        H819   1.082       .  S
Cu820       N823   2.064       .  S
Cu821       N831   2.124       .  S
Cu822       N824   2.132       .  S
Cu822       N830   2.135       .  S
N823        C827   1.343       .  A
N823        N824   1.322       .  A
N824        C825   1.358       .  A
C825        C826   1.397       .  A
C825        H828   1.082       .  S
C826        C827   1.379       .  A
C827        H829   1.079       .  S
N830        C834   1.355       .  A
N830        N831   1.329       .  A
N831        C832   1.354       .  A
C832        C833   1.389       .  A
C832        H835   1.082       .  S
C833        C834   1.392       .  A
C834        H836   1.082       .  S
N837        C841   1.355       .  A
N837        N838   1.322       .  A
N837       Cu845   2.124       .  S
N838        C839   1.343       .  A
N838       Cu844   2.058       .  S
C839        C840   1.379       .  A
C839        H842   1.080       .  S
C840        C841   1.394       .  A
C841        H843   1.082       .  S
Cu844       N847   2.058       .  S
Cu845       N855   2.127       .  S
Cu846       N848   2.124       .  S
Cu846       N854   2.127       .  S
N847        C851   1.342       .  A
N847        N848   1.322       .  A
N848        C849   1.356       .  A
C849        C850   1.394       .  A
C849        H852   1.082       .  S
C850        C851   1.377       .  A
C851        H853   1.080       .  S
N854        C858   1.355       .  A
N854        N855   1.328       .  A
N855        C856   1.354       .  A
C856        C857   1.391       .  A
C856        H859   1.082       .  S
C857        C858   1.391       .  A
C858        H860   1.082       .  S
N861        C866   1.360       .  A
N861        C865   1.361   1_655  A
N861        H893   1.029       .  S
N862        C869   1.360       .  A
N862        C870   1.359       .  A
N863        C868   1.362   1_455  A
N863        C867   1.361       .  A
N863        H894   1.029   1_455  S
N864        C871   1.360       .  A
N864        C872   1.362       .  A
C865        C873   1.387       .  A
C865        C881   1.430       .  A
C866        C882   1.430       .  A
C866        C874   1.388       .  A
C867        C875   1.387       .  A
C867        C884   1.431       .  A
C868        C883   1.432       .  A
C868        C876   1.388       .  A
C869        C881   1.430       .  A
C869        C877   1.386       .  A
C870        C884   1.430       .  A
C870        C878   1.387       .  A
C871        C879   1.387       .  A
C871        C882   1.432       .  A
C872        C880   1.387       .  A
C872        C883   1.433       .  A
C873        C874   1.377   1_455  A
C873        H885   1.082       .  S
C874        H886   1.082       .  S
C875        C876   1.378   1_455  A
C875        H887   1.082       .  S
C876        H888   1.082       .  S
C877        C878   1.378       .  A
C877        H889   1.082       .  S
C878        H890   1.082       .  S
C879        C880   1.379       .  A
C879        H891   1.082       .  S
C880        H892   1.082       .  S
C881       C1089   1.509       .  S
C882       C1287   1.508       .  S
C883       C1263   1.514       .  S
C884       C1065   1.506       .  S
N895        C899   1.347       .  A
N895        N896   1.319       .  A
N895       Cu903   2.059       .  S
N896        C897   1.339       .  A
N896       Cu902   2.067       .  S
C897        C898   1.382       .  A
C897        H900   1.074       .  S
C898        C899   1.384       .  A
C898        C951   1.477   1_655  S
C899        H901   1.082       .  S
Cu902       N905   2.067       .  S
Cu903       N913   2.061       .  S
Cu904       N906   2.077       .  S
Cu904       N912   2.080       .  S
N905        C909   1.339       .  A
N905        N906   1.319       .  A
N906        C907   1.350       .  A
C907        C908   1.388       .  A
C907        H910   1.082       .  S
C908        C909   1.381       .  A
C908       C1380   1.483       .  S
C909        H911   1.075       .  S
N912        C916   1.342       .  A
N912        N913   1.324       .  A
N913        C914   1.343       .  A
C914        C915   1.380       .  A
C914        H917   1.082       .  S
C915        C916   1.381       .  A
C915        C974   1.470       .  S
C916        H918   1.082       .  S
N919        C923   1.340       .  A
N919        N920   1.322       .  A
N919       Cu927   2.035       .  S
N920        C921   1.345       .  A
N920       Cu926   2.093       .  S
C921        C922   1.386       .  A
C921        H924   1.081       .  S
C922        C923   1.372       .  A
C922        C948   1.469   1_655  S
C923        H925   1.082       .  S
Cu926       N929   2.092       .  S
Cu927       N937   2.034       .  S
Cu928       N930   2.050       .  S
Cu928       N936   2.050       .  S
N929        C933   1.345       .  A
N929        N930   1.323       .  A
N930        C931   1.342       .  A
C931        C932   1.375       .  A
C931        H934   1.082       .  S
C932        C933   1.385       .  A
C932       C1377   1.471       .  S
C933        H935   1.080       .  S
N936        C940   1.340       .  A
N936        N937   1.320       .  A
N937        C938   1.339       .  A
C938        C939   1.373       .  A
C938        H941   1.082       .  S
C939        C940   1.378       .  A
C939        C975   1.460       .  S
C940        H942   1.082       .  S
C943        H944   1.112       .  S
C943        C949   1.540       .  S
C943        C948   1.533       .  S
C943        C947   1.535       .  S
C945        H946   1.112       .  S
C945        C951   1.531       .  S
C945        C950   1.538       .  S
C945        C952   1.537       .  S
C947       C1560   1.483       .  S
C949       C1058   1.487       .  S
C950       C1536   1.476       .  S
C952       C1082   1.485       .  S
N953        C958   1.350       .  A
N953        C957   1.347       .  A
N953        H985   1.037       .  S
N954        C961   1.346       .  A
N954        C962   1.349       .  A
N955        C960   1.348       .  A
N955        C959   1.350       .  A
N955        H986   1.038       .  S
N956        C963   1.349       .  A
N956        C964   1.346       .  A
C957        C965   1.387       .  A
C957        C973   1.405       .  A
C958        C974   1.409       .  A
C958        C966   1.388       .  A
C959        C967   1.388       .  A
C959        C976   1.410       .  A
C960        C975   1.406       .  A
C960        C968   1.386       .  A
C961        C973   1.407       .  A
C961        C969   1.387       .  A
C962        C976   1.406       .  A
C962        C970   1.385       .  A
C963        C971   1.384       .  A
C963        C974   1.404       .  A
C964        C972   1.388       .  A
C964        C975   1.407       .  A
C965        C966   1.371       .  A
C965        H977   1.082       .  S
C966        H978   1.081       .  S
C967        C968   1.372       .  A
C967        H979   1.081       .  S
C968        H980   1.082       .  S
C969        C970   1.375       .  A
C969        H981   1.082       .  S
C970        H982   1.082       .  S
C971        C972   1.374       .  A
C971        H983   1.082       .  S
C972        H984   1.082       .  S
C973       C1007   1.459       .  S
C976       C1031   1.473       .  S
N987        C991   1.340       .  A
N987        N988   1.322       .  A
N987       Cu995   2.037       .  S
N988        C989   1.345       .  A
N988       Cu994   2.092       .  S
C989        C990   1.385       .  A
C989        H992   1.079       .  S
C990        C991   1.373       .  A
C990       C1044   1.469       .  S
C991        H993   1.082       .  S
Cu994       N997   2.092       .  S
Cu995      N1005   2.036       .  S
Cu996       N998   2.048       .  S
Cu996      N1004   2.048       .  S
N997       C1001   1.346       .  A
N997        N998   1.322       .  A
N998        C999   1.342       .  A
C999       C1000   1.375       .  A
C999       H1002   1.082       .  S
C1000      C1001   1.385       .  A
C1000      C1670   1.471       .  S
C1001      H1003   1.081       .  S
N1004      C1008   1.339       .  A
N1004      N1005   1.320       .  A
N1005      C1006   1.340       .  A
C1006      C1007   1.374       .  A
C1006      H1009   1.082       .  S
C1007      C1008   1.376       .  A
C1008      H1010   1.082       .  S
N1011      C1015   1.347       .  A
N1011      N1012   1.319       .  A
N1011     Cu1019   2.059       .  S
N1012      C1013   1.342       .  A
N1012     Cu1018   2.084       .  S
C1013      C1014   1.386       .  A
C1013      H1016   1.076       .  S
C1014      C1015   1.382       .  A
C1014      C1041   1.482       .  S
C1015      H1017   1.082       .  S
Cu1018     N1021   2.084       .  S
Cu1019     N1029   2.061       .  S
Cu1020     N1022   2.083       .  S
Cu1020     N1028   2.084       .  S
N1021      C1025   1.341       .  A
N1021      N1022   1.321       .  A
N1022      C1023   1.352       .  A
C1023      C1024   1.388       .  A
C1023      H1026   1.082       .  S
C1024      C1025   1.384       .  A
C1024      C1667   1.491       .  S
C1025      H1027   1.074       .  S
N1028      C1032   1.344       .  A
N1028      N1029   1.324       .  A
N1029      C1030   1.343       .  A
C1030      C1031   1.379       .  A
C1030      H1033   1.082       .  S
C1031      C1032   1.383       .  A
C1032      H1034   1.082       .  S
C1035      H1036   1.112       .  S
C1035      C1041   1.534       .  S
C1035      C1040   1.544       .  S
C1035      C1039   1.539       .  S
C1037      H1038   1.112       .  S
C1037      C1043   1.542       .  S
C1037      C1042   1.538       .  S
C1037      C1044   1.534       .  S
C1039      C1430   1.476       .  S
C1040      C1256   1.491       .  S
C1042      C1454   1.487       .  S
C1043      C1280   1.492       .  S
N1045      C1049   1.356       .  A
N1045      N1046   1.322       .  A
N1045     Cu1053   2.127       .  S
N1046      C1047   1.344       .  A
N1046     Cu1052   2.065       .  S
C1047      C1048   1.379       .  A
C1047      H1050   1.080       .  S
C1048      C1049   1.395       .  A
C1048      C1242   1.492       .  S
C1049      H1051   1.082       .  S
Cu1052     N1055   2.064       .  S
Cu1053     N1063   2.129       .  S
Cu1054     N1056   2.113       .  S
Cu1054     N1062   2.115       .  S
N1055      C1059   1.343       .  A
N1055      N1056   1.322       .  A
N1056      C1057   1.355       .  A
C1057      C1058   1.392       .  A
C1057      H1060   1.082       .  S
C1058      C1059   1.379       .  A
C1059      H1061   1.080       .  S
N1062      C1066   1.352       .  A
N1062      N1063   1.328       .  A
N1063      C1064   1.355       .  A
C1064      C1065   1.392       .  A
C1064      H1067   1.082       .  S
C1065      C1066   1.387       .  A
C1066      H1068   1.082       .  S
N1069      C1073   1.357       .  A
N1069      N1070   1.321       .  A
N1069     Cu1077   2.131       .  S
N1070      C1071   1.342       .  A
N1070     Cu1076   2.054       .  S
C1071      C1072   1.378       .  A
C1071      H1074   1.079       .  S
C1072      C1073   1.397       .  A
C1072      C1239   1.493       .  S
C1073      H1075   1.082       .  S
Cu1076     N1079   2.052       .  S
Cu1077     N1087   2.133       .  S
Cu1078     N1080   2.117       .  S
Cu1078     N1086   2.121       .  S
N1079      C1083   1.341       .  A
N1079      N1080   1.321       .  A
N1080      C1081   1.355       .  A
C1081      C1082   1.394       .  A
C1081      H1084   1.082       .  S
C1082      C1083   1.376       .  A
C1083      H1085   1.079       .  S
N1086      C1090   1.354       .  A
N1086      N1087   1.329       .  A
N1087      C1088   1.355       .  A
C1088      C1089   1.391       .  A
C1088      H1091   1.082       .  S
C1089      C1090   1.389       .  A
C1090      H1092   1.082       .  S
N1093      C1097   1.349       .  A
N1093      N1094   1.320       .  A
N1093     Cu1101   2.063       .  S
N1094      C1095   1.342       .  A
N1094     Cu1100   2.088       .  S
C1095      C1096   1.386   1_455  A
C1095      H1098   1.074       .  S
C1096      C1097   1.384   1_655  A
C1096      C1147   1.486       .  S
C1097      H1099   1.082       .  S
Cu1100     N1103   2.089       .  S
Cu1101     N1111   2.064       .  S
Cu1102     N1104   2.078       .  S
Cu1102     N1110   2.079       .  S
N1103      C1107   1.344       .  A
N1103      N1104   1.321       .  A
N1104      C1105   1.350       .  A
C1105      C1106   1.385       .  A
C1105      H1108   1.082       .  S
C1106      C1107   1.386       .  A
C1106      C1575   1.487       .  S
C1107      H1109   1.076       .  S
N1110      C1114   1.343       .  A
N1110      N1111   1.323       .  A
N1111      C1112   1.344       .  A
C1112      C1113   1.379       .  A
C1112      H1115   1.082       .  S
C1113      C1114   1.382       .  A
C1113      C1174   1.472       .  S
C1114      H1116   1.082       .  S
N1117      C1121   1.341       .  A
N1117      N1118   1.321       .  A
N1117     Cu1125   2.034       .  S
N1118      C1119   1.344       .  A
N1118     Cu1124   2.090       .  S
C1119      C1120   1.386       .  A
C1119      H1122   1.078       .  S
C1120      C1121   1.373       .  A
C1120      C1150   1.470   1_455  S
C1121      H1123   1.082       .  S
Cu1124     N1127   2.091       .  S
Cu1125     N1135   2.034       .  S
Cu1126     N1128   2.048       .  S
Cu1126     N1134   2.048       .  S
N1127      C1131   1.344       .  A
N1127      N1128   1.323       .  A
N1128      C1129   1.343       .  A
C1129      C1130   1.375       .  A
C1129      H1132   1.082       .  S
C1130      C1131   1.384       .  A
C1130      C1578   1.470       .  S
C1131      H1133   1.080       .  S
N1134      C1138   1.339       .  A
N1134      N1135   1.320       .  A
N1135      C1136   1.340       .  A
C1136      C1137   1.373       .  A
C1136      H1139   1.082       .  S
C1137      C1138   1.376       .  A
C1137      C1171   1.458       .  S
C1138      H1140   1.082       .  S
C1141      H1142   1.112       .  S
C1141      C1147   1.535       .  S
C1141      C1146   1.541       .  S
C1141      C1145   1.537       .  S
C1143      H1144   1.112       .  S
C1143      C1149   1.542       .  S
C1143      C1148   1.536       .  S
C1143      C1150   1.535       .  S
C1145      C1338   1.470       .  S
C1146      C1270   1.492       .  S
C1148      C1362   1.488       .  S
C1149      C1246   1.492       .  S
N1151      C1156   1.349       .  A
N1151      C1155   1.347       .  A
N1151      H1183   1.038       .  S
N1152      C1159   1.346       .  A
N1152      C1160   1.349       .  A
N1153      C1158   1.348       .  A
N1153      C1157   1.350       .  A
N1153      H1184   1.038       .  S
N1154      C1161   1.349       .  A
N1154      C1162   1.345       .  A
C1155      C1163   1.388       .  A
C1155      C1171   1.405       .  A
C1156      C1172   1.406       .  A
C1156      C1164   1.386       .  A
C1157      C1165   1.386       .  A
C1157      C1174   1.408       .  A
C1158      C1173   1.406       .  A
C1158      C1166   1.387       .  A
C1159      C1171   1.407       .  A
C1159      C1167   1.388       .  A
C1160      C1174   1.405       .  A
C1160      C1168   1.385       .  A
C1161      C1169   1.384       .  A
C1161      C1172   1.403       .  A
C1162      C1170   1.388       .  A
C1162      C1173   1.406       .  A
C1163      C1164   1.372       .  A
C1163      H1175   1.082       .  S
C1164      H1176   1.082       .  S
C1165      C1166   1.372       .  A
C1165      H1177   1.082       .  S
C1166      H1178   1.082       .  S
C1167      C1168   1.375       .  A
C1167      H1179   1.082       .  S
C1168      H1180   1.082       .  S
C1169      C1170   1.374       .  A
C1169      H1181   1.082       .  S
C1170      H1182   1.082       .  S
C1172      C1205   1.468       .  S
C1173      C1229   1.459       .  S
N1185      C1189   1.346       .  A
N1185      N1186   1.321       .  A
N1185     Cu1193   2.053       .  S
N1186      C1187   1.343       .  A
N1186     Cu1192   2.092       .  S
C1187      C1188   1.386       .  A
C1187      H1190   1.076       .  S
C1188      C1189   1.380       .  A
C1188      C1241   1.480       .  S
C1189      H1191   1.082       .  S
Cu1192     N1195   2.094       .  S
Cu1193     N1203   2.054       .  S
Cu1194     N1196   2.067       .  S
Cu1194     N1202   2.069       .  S
N1195      C1199   1.344       .  A
N1195      N1196   1.322       .  A
N1196      C1197   1.348       .  A
C1197      C1198   1.382       .  A
C1197      H1200   1.082       .  S
C1198      C1199   1.387       .  A
C1198      C1470   1.485       .  S
C1199      H1201   1.076       .  S
N1202      C1206   1.342       .  A
N1202      N1203   1.322       .  A
N1203      C1204   1.342       .  A
C1204      C1205   1.378       .  A
C1204      H1207   1.082       .  S
C1205      C1206   1.381       .  A
C1206      H1208   1.082       .  S
N1209      C1213   1.342       .  A
N1209      N1210   1.321       .  A
N1209     Cu1217   2.038       .  S
N1210      C1211   1.344       .  A
N1210     Cu1216   2.093       .  S
C1211      C1212   1.386       .  A
C1211      H1214   1.077       .  S
C1212      C1213   1.375       .  A
C1212      C1238   1.473       .  S
C1213      H1215   1.082       .  S
Cu1216     N1219   2.093       .  S
Cu1217     N1227   2.038       .  S
Cu1218     N1220   2.052       .  S
Cu1218     N1226   2.051       .  S
N1219      C1223   1.345       .  A
N1219      N1220   1.322       .  A
N1220      C1221   1.344       .  A
C1221      C1222   1.377       .  A
C1221      H1224   1.082       .  S
C1222      C1223   1.385       .  A
C1222      C1473   1.475       .  S
C1223      H1225   1.079       .  S
N1226      C1230   1.339       .  A
N1226      N1227   1.321       .  A
N1227      C1228   1.341       .  A
C1228      C1229   1.374       .  A
C1228      H1231   1.082       .  S
C1229      C1230   1.376       .  A
C1230      H1232   1.082       .  S
C1233      H1234   1.112       .  S
C1233      C1239   1.543       .  S
C1233      C1238   1.534       .  S
C1233      C1237   1.539       .  S
C1235      H1236   1.112       .  S
C1235      C1241   1.535       .  S
C1235      C1240   1.537       .  S
C1235      C1242   1.542       .  S
C1237      C1628   1.486       .  S
C1240      C1652   1.477       .  S
N1243      C1247   1.358       .  A
N1243      N1244   1.321       .  A
N1243     Cu1251   2.133       .  S
N1244      C1245   1.341       .  A
N1244     Cu1250   2.053       .  S
C1245      C1246   1.377       .  A
C1245      H1248   1.079       .  S
C1246      C1247   1.398       .  A
C1247      H1249   1.082       .  S
Cu1250     N1253   2.053       .  S
Cu1251     N1261   2.137       .  S
Cu1252     N1254   2.130       .  S
Cu1252     N1260   2.133       .  S
N1253      C1257   1.342       .  A
N1253      N1254   1.321       .  A
N1254      C1255   1.357       .  A
C1255      C1256   1.397       .  A
C1255      H1258   1.082       .  S
C1256      C1257   1.377       .  A
C1257      H1259   1.079       .  S
N1260      C1264   1.355       .  A
N1260      N1261   1.330       .  A
N1261      C1262   1.356       .  A
C1262      C1263   1.393       .  A
C1262      H1265   1.082       .  S
C1263      C1264   1.391       .  A
C1264      H1266   1.082       .  S
N1267      C1271   1.356       .  A
N1267      N1268   1.321       .  A
N1267     Cu1275   2.119       .  S
N1268      C1269   1.344       .  A
N1268     Cu1274   2.066       .  S
C1269      C1270   1.380       .  A
C1269      H1272   1.080       .  S
C1270      C1271   1.394       .  A
C1271      H1273   1.082       .  S
Cu1274     N1277   2.066       .  S
Cu1275     N1285   2.121       .  S
Cu1276     N1278   2.128       .  S
Cu1276     N1284   2.130       .  S
N1277      C1281   1.343       .  A
N1277      N1278   1.323       .  A
N1278      C1279   1.357       .  A
C1279      C1280   1.396       .  A
C1279      H1282   1.082       .  S
C1280      C1281   1.378       .  A
C1281      H1283   1.080       .  S
N1284      C1288   1.355       .  A
N1284      N1285   1.328       .  A
N1285      C1286   1.353       .  A
C1286      C1287   1.388       .  A
C1286      H1289   1.082       .  S
C1287      C1288   1.391       .  A
C1288      H1290   1.082       .  S
N1291      C1296   1.360       .  A
N1291      C1295   1.360   1_545  A
N1291      H1323   1.034       .  S
N1292      C1299   1.360       .  A
N1292      C1300   1.361       .  A
N1293      C1298   1.360       .  A
N1293      C1297   1.361   1_545  A
N1293      H1324   1.033       .  S
N1294      C1301   1.360       .  A
N1294      C1302   1.359       .  A
C1295      C1303   1.388       .  A
C1295      C1311   1.430       .  A
C1296      C1312   1.429       .  A
C1296      C1304   1.387       .  A
C1297      C1305   1.388       .  A
C1297      C1314   1.431       .  A
C1298      C1313   1.431       .  A
C1298      C1306   1.388       .  A
C1299      C1311   1.431       .  A
C1299      C1307   1.387       .  A
C1300      C1314   1.431       .  A
C1300      C1308   1.387       .  A
C1301      C1309   1.386       .  A
C1301      C1312   1.429       .  A
C1302      C1310   1.387       .  A
C1302      C1313   1.430       .  A
C1303      C1304   1.378   1_565  A
C1303      H1315   1.082       .  S
C1304      H1316   1.082       .  S
C1305      C1306   1.378   1_565  A
C1305      H1317   1.082       .  S
C1306      H1318   1.082       .  S
C1307      C1308   1.379       .  A
C1307      H1319   1.082       .  S
C1308      H1320   1.082       .  S
C1309      C1310   1.378       .  A
C1309      H1321   1.082       .  S
C1310      H1322   1.082       .  S
C1311      C1693   1.509       .  S
C1312      C1495   1.507       .  S
C1313      C1519   1.505       .  S
C1314      C1717   1.510       .  S
N1325      C1329   1.340       .  A
N1325      N1326   1.320       .  A
N1325     Cu1333   2.029       .  S
N1326      C1327   1.344       .  A
N1326     Cu1332   2.088       .  S
C1327      C1328   1.386       .  A
C1327      H1330   1.078       .  S
C1328      C1329   1.373       .  A
C1328      C1381   1.468   1_565  S
C1329      H1331   1.082       .  S
Cu1332     N1335   2.089       .  S
Cu1333     N1343   2.029       .  S
Cu1334     N1336   2.055       .  S
Cu1334     N1342   2.054       .  S
N1335      C1339   1.345       .  A
N1335      N1336   1.324       .  A
N1336      C1337   1.343       .  A
C1337      C1338   1.375       .  A
C1337      H1340   1.082       .  S
C1338      C1339   1.383       .  A
C1339      H1341   1.081       .  S
N1342      C1346   1.341       .  A
N1342      N1343   1.320       .  A
N1343      C1344   1.338       .  A
C1344      C1345   1.373       .  A
C1344      H1347   1.082       .  S
C1345      C1346   1.379       .  A
C1345      C1406   1.461       .  S
C1346      H1348   1.082       .  S
N1349      C1353   1.348       .  A
N1349      N1350   1.319       .  A
N1349     Cu1357   2.063       .  S
N1350      C1351   1.340       .  A
N1350     Cu1356   2.075       .  S
C1351      C1352   1.383       .  A
C1351      H1354   1.074       .  S
C1352      C1353   1.385       .  A
C1352      C1378   1.481   1_565  S
C1353      H1355   1.082       .  S
Cu1356     N1359   2.076       .  S
Cu1357     N1367   2.065       .  S
Cu1358     N1360   2.084       .  S
Cu1358     N1366   2.086       .  S
N1359      C1363   1.341       .  A
N1359      N1360   1.321       .  A
N1360      C1361   1.352       .  A
C1361      C1362   1.388       .  A
C1361      H1364   1.082       .  S
C1362      C1363   1.383       .  A
C1363      H1365   1.076       .  S
N1366      C1370   1.344       .  A
N1366      N1367   1.324       .  A
N1367      C1368   1.343       .  A
C1368      C1369   1.379       .  A
C1368      H1371   1.082       .  S
C1369      C1370   1.383       .  A
C1369      C1403   1.474       .  S
C1370      H1372   1.082       .  S
C1373      H1374   1.112       .  S
C1373      C1379   1.538       .  S
C1373      C1378   1.531       .  S
C1373      C1377   1.536       .  S
C1375      H1376   1.112       .  S
C1375      C1381   1.534       .  S
C1375      C1380   1.534       .  S
C1375      C1382   1.539       .  S
C1379      C1478   1.488       .  S
C1382      C1512   1.484       .  S
N1383      C1388   1.348       .  A
N1383      C1387   1.351       .  A
N1383      H1415   1.036       .  S
N1384      C1391   1.350       .  A
N1384      C1392   1.346       .  A
N1385      C1390   1.350       .  A
N1385      C1389   1.348       .  A
N1385      H1416   1.038       .  S
N1386      C1393   1.347       .  A
N1386      C1394   1.350       .  A
C1387      C1395   1.388       .  A
C1387      C1403   1.411       .  A
C1388      C1404   1.407       .  A
C1388      C1396   1.387       .  A
C1389      C1397   1.388       .  A
C1389      C1406   1.407       .  A
C1390      C1405   1.407       .  A
C1390      C1398   1.386       .  A
C1391      C1403   1.407       .  A
C1391      C1399   1.385       .  A
C1392      C1406   1.408       .  A
C1392      C1400   1.388       .  A
C1393      C1401   1.388       .  A
C1393      C1404   1.409       .  A
C1394      C1402   1.384       .  A
C1394      C1405   1.405       .  A
C1395      C1396   1.371       .  A
C1395      H1407   1.081       .  S
C1396      H1408   1.082       .  S
C1397      C1398   1.370       .  A
C1397      H1409   1.082       .  S
C1398      H1410   1.082       .  S
C1399      C1400   1.374       .  A
C1399      H1411   1.082       .  S
C1400      H1412   1.082       .  S
C1401      C1402   1.374       .  A
C1401      H1413   1.082       .  S
C1402      H1414   1.082       .  S
C1404      C1437   1.461       .  S
C1405      C1461   1.472       .  S
N1417      C1421   1.340       .  A
N1417      N1418   1.323       .  A
N1417     Cu1425   2.038       .  S
N1418      C1419   1.346       .  A
N1418     Cu1424   2.099       .  S
C1419      C1420   1.386       .  A
C1419      H1422   1.081       .  S
C1420      C1421   1.372       .  A
C1420      C1469   1.468       .  S
C1421      H1423   1.082       .  S
Cu1424     N1427   2.099       .  S
Cu1425     N1435   2.037       .  S
Cu1426     N1428   2.049       .  S
Cu1426     N1434   2.048       .  S
N1427      C1431   1.347       .  A
N1427      N1428   1.322       .  A
N1428      C1429   1.343       .  A
C1429      C1430   1.376       .  A
C1429      H1432   1.082       .  S
C1430      C1431   1.388       .  A
C1431      H1433   1.081       .  S
N1434      C1438   1.338       .  A
N1434      N1435   1.320       .  A
N1435      C1436   1.342       .  A
C1436      C1437   1.376       .  A
C1436      H1439   1.082       .  S
C1437      C1438   1.376       .  A
C1438      H1440   1.082       .  S
N1441      C1445   1.350       .  A
N1441      N1442   1.320       .  A
N1441     Cu1449   2.069       .  S
N1442      C1443   1.339       .  A
N1442     Cu1448   2.076       .  S
C1443      C1444   1.383       .  A
C1443      H1446   1.073       .  S
C1444      C1445   1.387       .  A
C1444      C1472   1.486       .  S
C1445      H1447   1.082       .  S
Cu1448     N1451   2.077       .  S
Cu1449     N1459   2.070       .  S
Cu1450     N1452   2.075       .  S
Cu1450     N1458   2.078       .  S
N1451      C1455   1.341       .  A
N1451      N1452   1.319       .  A
N1452      C1453   1.350       .  A
C1453      C1454   1.387       .  A
C1453      H1456   1.082       .  S
C1454      C1455   1.385       .  A
C1455      H1457   1.075       .  S
N1458      C1462   1.341       .  A
N1458      N1459   1.325       .  A
N1459      C1460   1.345       .  A
C1460      C1461   1.380       .  A
C1460      H1463   1.082       .  S
C1461      C1462   1.381       .  A
C1462      H1464   1.082       .  S
C1465      H1466   1.112       .  S
C1465      C1471   1.541       .  S
C1465      C1470   1.537       .  S
C1465      C1469   1.532       .  S
C1467      H1468   1.112       .  S
C1467      C1473   1.538       .  S
C1467      C1472   1.535       .  S
C1467      C1474   1.543       .  S
C1471      C1686   1.494       .  S
C1474      C1700   1.488       .  S
N1475      C1479   1.355       .  A
N1475      N1476   1.321       .  A
N1475     Cu1483   2.118       .  S
N1476      C1477   1.342       .  A
N1476     Cu1482   2.055       .  S
C1477      C1478   1.378       .  A
C1477      H1480   1.079       .  S
C1478      C1479   1.394       .  A
C1479      H1481   1.082       .  S
Cu1482     N1485   2.054       .  S
Cu1483     N1493   2.121       .  S
Cu1484     N1486   2.124       .  S
Cu1484     N1492   2.127       .  S
N1485      C1489   1.342       .  A
N1485      N1486   1.322       .  A
N1486      C1487   1.356       .  A
C1487      C1488   1.395       .  A
C1487      H1490   1.082       .  S
C1488      C1489   1.377       .  A
C1488      C1668   1.487       .  S
C1489      H1491   1.080       .  S
N1492      C1496   1.354       .  A
N1492      N1493   1.328       .  A
N1493      C1494   1.354       .  A
C1494      C1495   1.389       .  A
C1494      H1497   1.082       .  S
C1495      C1496   1.390       .  A
C1496      H1498   1.082       .  S
N1499      C1503   1.356       .  A
N1499      N1500   1.321       .  A
N1499     Cu1507   2.126       .  S
N1500      C1501   1.343       .  A
N1500     Cu1506   2.057       .  S
C1501      C1502   1.378       .  A
C1501      H1504   1.080       .  S
C1502      C1503   1.396       .  A
C1502      C1671   1.491       .  S
C1503      H1505   1.082       .  S
Cu1506     N1509   2.057       .  S
Cu1507     N1517   2.128       .  S
Cu1508     N1510   2.112       .  S
Cu1508     N1516   2.114       .  S
N1509      C1513   1.341       .  A
N1509      N1510   1.321       .  A
N1510      C1511   1.354       .  A
C1511      C1512   1.392       .  A
C1511      H1514   1.082       .  S
C1512      C1513   1.377       .  A
C1513      H1515   1.080       .  S
N1516      C1520   1.353       .  A
N1516      N1517   1.328       .  A
N1517      C1518   1.354       .  A
C1518      C1519   1.390       .  A
C1518      H1521   1.082       .  S
C1519      C1520   1.388       .  A
C1520      H1522   1.082       .  S
N1523      C1527   1.341       .  A
N1523      N1524   1.322       .  A
N1523     Cu1531   2.040       .  S
N1524      C1525   1.346       .  A
N1524     Cu1530   2.098       .  S
C1525      C1526   1.387       .  A
C1525      H1528   1.079       .  S
C1526      C1527   1.373       .  A
C1526      C1577   1.472   1_545  S
C1527      H1529   1.082       .  S
Cu1530     N1533   2.098       .  S
Cu1531     N1541   2.040       .  S
Cu1532     N1534   2.055       .  S
Cu1532     N1540   2.055       .  S
N1533      C1537   1.347       .  A
N1533      N1534   1.323       .  A
N1534      C1535   1.343       .  A
C1535      C1536   1.376       .  A
C1535      H1538   1.082       .  S
C1536      C1537   1.386       .  A
C1537      H1539   1.080       .  S
N1540      C1544   1.341       .  A
N1540      N1541   1.320       .  A
N1541      C1542   1.341       .  A
C1542      C1543   1.375       .  A
C1542      H1545   1.082       .  S
C1543      C1544   1.378       .  A
C1543      C1601   1.463       .  S
C1544      H1546   1.082       .  S
N1547      C1551   1.348       .  A
N1547      N1548   1.319       .  A
N1547     Cu1555   2.067       .  S
N1548      C1549   1.341       .  A
N1548     Cu1554   2.072       .  S
C1549      C1550   1.384       .  A
C1549      H1552   1.074       .  S
C1550      C1551   1.385       .  A
C1550      C1580   1.482   1_545  S
C1551      H1553   1.082       .  S
Cu1554     N1557   2.072       .  S
Cu1555     N1565   2.069       .  S
Cu1556     N1558   2.078       .  S
Cu1556     N1564   2.080       .  S
N1557      C1561   1.340       .  A
N1557      N1558   1.320       .  A
N1558      C1559   1.349       .  A
C1559      C1560   1.387       .  A
C1559      H1562   1.082       .  S
C1560      C1561   1.382       .  A
C1561      H1563   1.074       .  S
N1564      C1568   1.345       .  A
N1564      N1565   1.324       .  A
N1565      C1566   1.343       .  A
C1566      C1567   1.380       .  A
C1566      H1569   1.082       .  S
C1567      C1568   1.382       .  A
C1567      C1604   1.475       .  S
C1568      H1570   1.082       .  S
C1571      H1572   1.112       .  S
C1571      C1577   1.536       .  S
C1571      C1576   1.542       .  S
C1571      C1575   1.536       .  S
C1573      H1574   1.112       .  S
C1573      C1579   1.541       .  S
C1573      C1578   1.538       .  S
C1573      C1580   1.534       .  S
C1576      C1710   1.488       .  S
C1579      C1676   1.493       .  S
N1581      C1586   1.349       .  A
N1581      C1585   1.349       .  A
N1581      H1613   1.038       .  S
N1582      C1589   1.346       .  A
N1582      C1590   1.349       .  A
N1583      C1588   1.348       .  A
N1583      C1587   1.351       .  A
N1583      H1614   1.039       .  S
N1584      C1591   1.349       .  A
N1584      C1592   1.347       .  A
C1585      C1593   1.388       .  A
C1585      C1601   1.408       .  A
C1586      C1602   1.408       .  A
C1586      C1594   1.387       .  A
C1587      C1595   1.388       .  A
C1587      C1604   1.411       .  A
C1588      C1603   1.405       .  A
C1588      C1596   1.386       .  A
C1589      C1601   1.409       .  A
C1589      C1597   1.387       .  A
C1590      C1604   1.407       .  A
C1590      C1598   1.385       .  A
C1591      C1599   1.385       .  A
C1591      C1602   1.405       .  A
C1592      C1600   1.387       .  A
C1592      C1603   1.407       .  A
C1593      C1594   1.373       .  A
C1593      H1605   1.082       .  S
C1594      H1606   1.082       .  S
C1595      C1596   1.373       .  A
C1595      H1607   1.080       .  S
C1596      H1608   1.082       .  S
C1597      C1598   1.376       .  A
C1597      H1609   1.082       .  S
C1598      H1610   1.082       .  S
C1599      C1600   1.375       .  A
C1599      H1611   1.082       .  S
C1600      H1612   1.082       .  S
C1602      C1635   1.470       .  S
C1603      C1659   1.462       .  S
N1615      C1619   1.348       .  A
N1615      N1616   1.320       .  A
N1615     Cu1623   2.063       .  S
N1616      C1617   1.341       .  A
N1616     Cu1622   2.081       .  S
C1617      C1618   1.385       .  A
C1617      H1620   1.074       .  S
C1618      C1619   1.384       .  A
C1618      C1672   1.483       .  S
C1619      H1621   1.082       .  S
Cu1622     N1625   2.082       .  S
Cu1623     N1633   2.064       .  S
Cu1624     N1626   2.071       .  S
Cu1624     N1632   2.073       .  S
N1625      C1629   1.341       .  A
N1625      N1626   1.320       .  A
N1626      C1627   1.350       .  A
C1627      C1628   1.386       .  A
C1627      H1630   1.082       .  S
C1628      C1629   1.385       .  A
C1629      H1631   1.074       .  S
N1632      C1636   1.342       .  A
N1632      N1633   1.324       .  A
N1633      C1634   1.344       .  A
C1634      C1635   1.379       .  A
C1634      H1637   1.082       .  S
C1635      C1636   1.380       .  A
C1636      H1638   1.082       .  S
N1639      C1643   1.341       .  A
N1639      N1640   1.322       .  A
N1639     Cu1647   2.036       .  S
N1640      C1641   1.344       .  A
N1640     Cu1646   2.092       .  S
C1641      C1642   1.385       .  A
C1641      H1644   1.079       .  S
C1642      C1643   1.373       .  A
C1642      C1669   1.468       .  S
C1643      H1645   1.082       .  S
Cu1646     N1649   2.093       .  S
Cu1647     N1657   2.036       .  S
Cu1648     N1650   2.058       .  S
Cu1648     N1656   2.058       .  S
N1649      C1653   1.346       .  A
N1649      N1650   1.322       .  A
N1650      C1651   1.344       .  A
C1651      C1652   1.378       .  A
C1651      H1654   1.082       .  S
C1652      C1653   1.386       .  A
C1653      H1655   1.080       .  S
N1656      C1660   1.340       .  A
N1656      N1657   1.320       .  A
N1657      C1658   1.341       .  A
C1658      C1659   1.374       .  A
C1658      H1661   1.082       .  S
C1659      C1660   1.378       .  A
C1660      H1662   1.082       .  S
C1663      H1664   1.112       .  S
C1663      C1669   1.533       .  S
C1663      C1668   1.543       .  S
C1663      C1667   1.536       .  S
C1665      H1666   1.112       .  S
C1665      C1671   1.539       .  S
C1665      C1670   1.537       .  S
C1665      C1672   1.533       .  S
N1673      C1677   1.357       .  A
N1673      N1674   1.322       .  A
N1673     Cu1681   2.125       .  S
N1674      C1675   1.344       .  A
N1674     Cu1680   2.065       .  S
C1675      C1676   1.379       .  A
C1675      H1678   1.080       .  S
C1676      C1677   1.396       .  A
C1677      H1679   1.082       .  S
Cu1680     N1683   2.065       .  S
Cu1681     N1691   2.127       .  S
Cu1682     N1684   2.128       .  S
Cu1682     N1690   2.130       .  S
N1683      C1687   1.343       .  A
N1683      N1684   1.322       .  A
N1684      C1685   1.357       .  A
C1685      C1686   1.396       .  A
C1685      H1688   1.082       .  S
C1686      C1687   1.379       .  A
C1687      H1689   1.079       .  S
N1690      C1694   1.355       .  A
N1690      N1691   1.329       .  A
N1691      C1692   1.354       .  A
C1692      C1693   1.390       .  A
C1692      H1695   1.082       .  S
C1693      C1694   1.391       .  A
C1694      H1696   1.082       .  S
N1697      C1701   1.355       .  A
N1697      N1698   1.322       .  A
N1697     Cu1705   2.122       .  S
N1698      C1699   1.343       .  A
N1698     Cu1704   2.058       .  S
C1699      C1700   1.378       .  A
C1699      H1702   1.080       .  S
C1700      C1701   1.394       .  A
C1701      H1703   1.082       .  S
Cu1704     N1707   2.058       .  S
Cu1705     N1715   2.125       .  S
Cu1706     N1708   2.124       .  S
Cu1706     N1714   2.127       .  S
N1707      C1711   1.342       .  A
N1707      N1708   1.322       .  A
N1708      C1709   1.356       .  A
C1709      C1710   1.394       .  A
C1709      H1712   1.082       .  S
C1710      C1711   1.378       .  A
C1711      H1713   1.080       .  S
N1714      C1718   1.355       .  A
N1714      N1715   1.328       .  A
N1715      C1716   1.354       .  A
C1716      C1717   1.391       .  A
C1716      H1719   1.082       .  S
C1717      C1718   1.391       .  A
C1718      H1720   1.082       .  S
