geometry optimzed in LAMMPS
_audit_creation_date              2020-12-01 
_audit_creation_method            'lammps2cif' 
_symmetry_space_group_name_H-M    'P1' 
_symmetry_Int_Tables_number       1 
_symmetry_cell_setting            triclinic 
loop_ 
_symmetry_equiv_pos_as_xyz 
  x,y,z 
_cell_length_a                    36.13639794 
_cell_length_b                    36.03812513067755 
_cell_length_c                    45.6644244998839 
_cell_angle_alpha                 90.32483022739922 
_cell_angle_beta                  89.82931791724565 
_cell_angle_gamma                 90.06349710326394 
loop_ 
_atom_site_label 
_atom_site_type_symbol 
_atom_site_fract_x 
_atom_site_fract_y 
_atom_site_fract_z 
_atom_site_charge 
Fe1        Fe  0.92123597  0.10484703  0.06136464     1.65800
Fe2        Fe  0.83514633  0.11054387  0.08497343     1.73200
Fe3        Fe  0.86007810  0.03809299  0.04048200     1.54400
O4          O  0.88676588  0.05949272  0.50490918    -0.82300
O5          O  0.81472616  0.06324540  0.10366066    -0.80600
O6          O  0.91098454  0.11542619  0.51676193    -0.84800
O7          O  0.94769160  0.05897540  0.04853216    -0.79700
O8          O  0.81020006  0.05921296  0.02549722    -0.81400
O9          O  0.87282072  0.11457882  0.11970475    -0.84200
C10         C  0.94261125  0.02500041  0.04466989     0.96600
C11         C  0.90065862  0.09094562  0.49794610     1.04000
O12         O  0.87192719  0.08305123  0.06277436    -1.13200
O13         O  0.84896172  0.16041698  0.06563049    -0.75600
O14         O  0.90752852  0.15710346  0.07468278    -0.79100
O15         O  0.91076880  0.01015476  0.04858265    -0.79800
C16         C  0.88057087  0.17495364  0.06522286     0.95500
O17         O  0.92771111  0.09218083  0.10440017    -0.77700
O18         O  0.79556062  0.10819660  0.05303828    -0.82900
C19         C  0.81295689  0.02884844  0.09758701     0.98100
C20         C  0.78935046  0.08648922  0.03174684     1.04000
O21         O  0.83082220  0.01372973  0.07616718    -0.78600
C22         C  0.90547027  0.10212747  0.12465819     1.02300
Fe23       Fe  0.57943735  0.08841627  0.21111623     1.65800
Fe24       Fe  0.66564881  0.11043315  0.18864296     1.73200
Fe25       Fe  0.65212391  0.03338289  0.22904865     1.54400
O26         O  0.63545899  0.05579157  0.26820490    -0.82300
O27         O  0.69606824  0.06511737  0.17269983    -0.80600
O28         O  0.58019708  0.08009839  0.25652119    -0.84800
O29         O  0.56940686  0.03476836  0.20116863    -0.79700
O30         O  0.70410065  0.05647150  0.23550906    -0.81400
O31         O  0.63397721  0.10722892  0.15145214    -0.84200
C32         C  0.57035221  0.01312313  0.22242348     0.96600
C33         C  0.60495452  0.07125801  0.27522851     1.04000
O34         O  0.63220084  0.07783493  0.20954596    -1.13200
O35         O  0.64001037  0.15941794  0.20253777    -0.75600
O36         O  0.58533274  0.14326818  0.22058030    -0.79100
O37         O  0.60195345  0.00261557  0.23113620    -0.79800
C38         C  0.61007041  0.16730175  0.21587860     0.95500
O39         O  0.57591876  0.09810148  0.16671117    -0.77700
O40         O  0.69922486  0.11593775  0.22464030    -0.82900
C41         C  0.69439298  0.02965141  0.17258272     0.98100
C42         C  0.71513355  0.08979999  0.23798690     1.04000
O43         O  0.67201971  0.01155232  0.18918685    -0.78600
C44         C  0.59963604  0.10293655  0.14647214     1.02300
Fe45       Fe  0.08295004  0.92756177  0.46427240     1.65800
Fe46       Fe  0.16881739  0.90710587  0.44037149     1.73200
Fe47       Fe  0.15391063  0.98783107  0.98185843     1.54400
O48         O  0.10349615  0.01843727  0.98236995    -0.82300
O49         O  0.20106347  0.89950886  0.47633534    -0.80600
O50         O  0.07288201  0.98108095  0.45534892    -0.84800
O51         O  0.08218268  0.94189508  0.00999345    -0.79700
O52         O  0.17643152  0.00554737  0.44402050    -0.81400
O53         O  0.14295424  0.85777928  0.45184220    -0.84200
C54         C  0.10628749  0.95314021  0.02862041     0.96600
C55         C  0.07346325  0.00176933  0.47733364     1.04000
O56         O  0.13554830  0.93877537  0.46248867    -1.13200
O57         O  0.13742624  0.91256661  0.40347365    -0.75600
O58         O  0.07921276  0.91816794  0.41967552    -0.79100
O59         O  0.13671143  0.96815484  0.02130896    -0.79800
C60         C  0.10282918  0.91525172  0.39906598     0.95500
O61         O  0.08945811  0.87300735  0.47275461    -0.77700
O62         O  0.20052467  0.95234582  0.42678717    -0.82900
C63         C  0.21543270  0.93091928  0.99319273     0.98100
C64         C  0.19968767  0.98774112  0.42786732     1.04000
O65         O  0.20516678  0.96433605  0.98976297    -0.78600
C66         C  0.11378906  0.84947267  0.46591820     1.02300
Fe67       Fe  0.43079506  0.93700877  0.31091436     1.65800
Fe68       Fe  0.34368894  0.91469434  0.33112914     1.73200
Fe69       Fe  0.35898693  0.99372321  0.29345066     1.54400
O70         O  0.40970912  0.02371038  0.29190574    -0.82300
O71         O  0.30987000  0.91277573  0.29513367    -0.80600
O72         O  0.44198126  0.99035654  0.32114820    -0.84800
O73         O  0.43016495  0.94550028  0.26545737    -0.79700
O74         O  0.33935987  0.01374492  0.33409565    -0.81400
O75         O  0.36769363  0.86655426  0.31482933    -0.84200
C76         C  0.40579965  0.95586740  0.24682426     0.96600
C77         C  0.44121869  0.01255973  0.30028355     1.04000
O78         O  0.37805582  0.94807601  0.31191815    -1.13200
O79         O  0.37513548  0.91350699  0.36859878    -0.75600
O80         O  0.43325667  0.92746851  0.35537958    -0.79100
O81         O  0.37586197  0.97252667  0.25384710    -0.79800
C82         C  0.40893251  0.91953577  0.37449823     0.95500
O83         O  0.42474536  0.88202167  0.30151395    -0.77700
O84         O  0.31511108  0.95945891  0.34909871    -0.82900
C85         C  0.29409333  0.93973443  0.28273330     0.98100
C86         C  0.31726133  0.99480482  0.35042086     1.04000
O87         O  0.30607600  0.97259945  0.28593901    -0.78600
C88         C  0.39901065  0.85853933  0.30388372     1.02300
Fe89       Fe  0.42890682  0.93888269  0.05968619     1.65800
Fe90       Fe  0.40796705  0.85184929  0.08092935     1.73200
Fe91       Fe  0.48522685  0.86700795  0.04152366     1.54400
O92         O  0.46504997  0.87977288  0.50364561    -0.82300
O93         O  0.45316064  0.82255434  0.09660905    -0.80600
O94         O  0.43563459  0.93332613  0.51425474    -0.84800
O95         O  0.48220577  0.94939635  0.06913736    -0.79700
O96         O  0.46415427  0.81406586  0.03558688    -0.81400
O97         O  0.40975610  0.88372362  0.11856590    -0.84200
C98         C  0.50319948  0.94947437  0.04743507     0.96600
C99         C  0.44650628  0.90816813  0.49616428     1.04000
O100        O  0.44022176  0.88618684  0.06085835    -1.13200
O101        O  0.35926676  0.87641106  0.06720995    -0.75600
O102        O  0.37435549  0.93242477  0.05111642    -0.79100
O103        O  0.51453757  0.91817827  0.03832088    -0.79800
C104        C  0.35094819  0.90704263  0.05537649     0.95500
O105        O  0.41959228  0.94227038  0.10435966    -0.77700
O106        O  0.40425801  0.81803463  0.04432673    -0.82900
C107        C  0.48839540  0.82494184  0.09730384     0.98100
C108        C  0.43146539  0.80225765  0.03188671     1.04000
O109        O  0.50672554  0.84818503  0.08154530    -0.78600
C110        C  0.41424716  0.91809841  0.12415331     1.02300
Fe111      Fe  0.43830979  0.58797799  0.21062042     1.65800
Fe112      Fe  0.41150652  0.67341837  0.19060342     1.73200
Fe113      Fe  0.48938197  0.66327043  0.23047956     1.54400
O114        O  0.46860398  0.64436424  0.26916559    -0.82300
O115        O  0.45440137  0.70703035  0.17565815    -0.80600
O116        O  0.44608404  0.58832908  0.25583514    -0.84800
O117        O  0.49228089  0.58198920  0.20088361    -0.79700
O118        O  0.46326059  0.71396980  0.23816387    -0.81400
O119        O  0.41627980  0.64315623  0.15258351    -0.84200
C120        C  0.51286026  0.58249308  0.22273594     0.96600
C121        C  0.45437888  0.61291432  0.27503620     1.04000
O122        O  0.44590206  0.64132786  0.21063253    -1.13200
O123        O  0.36458887  0.64451955  0.20338852    -0.75600
O124        O  0.38334977  0.59002368  0.21979709    -0.79100
O125        O  0.52275892  0.61432314  0.23189639    -0.79800
C126        C  0.35813112  0.61354072  0.21543222     0.95500
O127        O  0.42912453  0.58529403  0.16623832    -0.77700
O128        O  0.40427056  0.70519859  0.22748744    -0.82900
C129        C  0.48971745  0.70688355  0.17484563     0.98100
C130        C  0.42935154  0.72283559  0.24086442     1.04000
O131        O  0.50934452  0.68517974  0.19080239    -0.78600
C132        C  0.42253808  0.60922346  0.14663274     1.02300
Fe133      Fe  0.57985477  0.08870040  0.46149341     1.65800
Fe134      Fe  0.60303328  0.17559641  0.44101625     1.73200
Fe135      Fe  0.52238159  0.16086910  0.98117198     1.54400
O136        O  0.49055674  0.11101937  0.98055102    -0.82300
O137        O  0.60749027  0.20902841  0.47749924    -0.80600
O138        O  0.52638430  0.07940361  0.45154424    -0.84800
O139        O  0.56708069  0.08622571  0.00588077    -0.79700
O140        O  0.50453281  0.18305499  0.44084570    -0.81400
O141        O  0.65087797  0.14952170  0.45567124    -0.84200
C142        C  0.55853438  0.11043864  0.02532571     0.96600
C143        C  0.50485268  0.08003320  0.47298806     1.04000
O144        O  0.56975998  0.14191838  0.46088408    -1.13200
O145        O  0.60105317  0.14418729  0.40319747    -0.75600
O146        O  0.59029988  0.08568358  0.41710333    -0.79100
O147        O  0.54337252  0.14144359  0.01962685    -0.79800
C148        C  0.59639742  0.10990024  0.39753922     0.95500
O149        O  0.63444199  0.09342180  0.47092954    -0.77700
O150        O  0.55867015  0.20648160  0.42490112    -0.82900
C151        C  0.57995258  0.22364903  0.99155677     0.98100
C152        C  0.52330129  0.20540828  0.42463131     1.04000
O153        O  0.54656027  0.21246671  0.99031542    -0.78600
C154        C  0.65818520  0.11875444  0.46781809     1.02300
Fe155      Fe  0.59167298  0.43566873  0.31145762     1.65800
Fe156      Fe  0.60536097  0.34739045  0.33337624     1.73200
Fe157      Fe  0.52976861  0.36785541  0.29357886     1.54400
O158        O  0.50363357  0.42087959  0.29247543    -0.82300
O159        O  0.60827264  0.31489600  0.29633213    -0.80600
O160        O  0.53964257  0.45241303  0.32102572    -0.84800
O161        O  0.58304822  0.43619153  0.26601431    -0.79700
O162        O  0.50679797  0.34843416  0.33319843    -0.81400
O163        O  0.65641922  0.36865965  0.32115792    -0.84200
C164        C  0.57168026  0.41165089  0.24774045     0.96600
C165        C  0.51686126  0.45211439  0.30041981     1.04000
O166        O  0.57579697  0.38397872  0.31299583    -1.13200
O167        O  0.60397363  0.37861000  0.37126085    -0.75600
O168        O  0.60141594  0.43747927  0.35623027    -0.79100
O169        O  0.55298537  0.38315827  0.25486551    -0.79800
C170        C  0.60308318  0.41334398  0.37649917     0.95500
O171        O  0.64557040  0.42398538  0.30184558    -0.77700
O172        O  0.55850932  0.31979997  0.34802504    -0.82900
C173        C  0.58122400  0.30135507  0.28228756     0.98100
C174        C  0.52352328  0.32394422  0.34872406     1.04000
O175        O  0.54868897  0.31412355  0.28549866    -0.78600
C176        C  0.66689473  0.39726901  0.30742950     1.02300
Fe177      Fe  0.07913446  0.93426246  0.21436358     1.65800
Fe178      Fe  0.10499113  0.84923540  0.19183601     1.73200
Fe179      Fe  0.02747963  0.85885031  0.23255134     1.54400
O180        O  0.04819385  0.87683474  0.27149322    -0.82300
O181        O  0.06180837  0.81548769  0.17691088    -0.80600
O182        O  0.06890040  0.93368603  0.25948676    -0.84800
O183        O  0.02573392  0.94060579  0.20303321    -0.79700
O184        O  0.05381212  0.80795274  0.23934882    -0.81400
O185        O  0.09889328  0.87994389  0.15457234    -0.84200
C186        C  0.00403082  0.94011516  0.22433976     0.96600
C187        C  0.06156930  0.90839522  0.27817984     1.04000
O188        O  0.07101852  0.88092119  0.21300492    -1.13200
O189        O  0.15239866  0.87799265  0.20530315    -0.75600
O190        O  0.13344082  0.93103975  0.22533599    -0.79100
O191        O  0.99480332  0.90842597  0.23416472    -0.79800
C192        C  0.15846450  0.90757027  0.21992125     0.95500
O193        O  0.09084282  0.93825431  0.17020753    -0.77700
O194        O  0.11266153  0.81685917  0.22770314    -0.82900
C195        C  0.02644288  0.81501367  0.17692384     0.98100
C196        C  0.08779803  0.79878491  0.24087447     1.04000
O197        O  0.00706816  0.83716990  0.19291562    -0.78600
C198        C  0.09441940  0.91430570  0.14986614     1.02300
Fe199      Fe  0.10952907  0.58721817  0.06436582     1.65800
Fe200      Fe  0.11588595  0.67459200  0.08569213     1.73200
Fe201      Fe  0.04180885  0.64677791  0.04456788     1.54400
O202        O  0.06507113  0.62159063  0.50714324    -0.82300
O203        O  0.06923909  0.69520095  0.10602070    -0.80600
O204        O  0.11930173  0.59428274  0.51913453    -0.84800
O205        O  0.06318650  0.55949205  0.05388962    -0.79700
O206        O  0.06202557  0.69586392  0.02712423    -0.81400
O207        O  0.12232082  0.63857362  0.12112738    -0.84200
C208        C  0.02901308  0.56442343  0.05179917     0.96600
C209        C  0.09570951  0.60585141  0.50026287     1.04000
O210        O  0.08773481  0.63649277  0.06534566    -1.13200
O211        O  0.16477830  0.66048996  0.06420547    -0.75600
O212        O  0.16208711  0.60250740  0.07540477    -0.79100
O213        O  0.01469782  0.59653702  0.05571073    -0.79800
C214        C  0.17911301  0.62871975  0.06362869     0.95500
O215        O  0.09828321  0.58340221  0.10801942    -0.77700
O216        O  0.11123721  0.71266878  0.05313351    -0.86100
C217        C  0.03458705  0.69592010  0.10115865     0.98100
C218        C  0.08939376  0.71716354  0.03190775     1.04000
O219        O  0.01908568  0.67722620  0.08043736    -0.78600
C220        C  0.10816344  0.60696794  0.12744501     1.02300
Fe221      Fe  0.92866976  0.08625850  0.31034156     1.65800
Fe222      Fe  0.90684908  0.17519182  0.32499654     1.73200
Fe223      Fe  0.98616763  0.15597231  0.28921093     1.54400
O224        O  0.01538060  0.10476220  0.28931527    -0.82300
O225        O  0.90584962  0.20491423  0.28687869    -0.80600
O226        O  0.98182438  0.07519522  0.32019942    -0.84800
O227        O  0.93672748  0.08343240  0.26483571    -0.79700
O228        O  0.00549089  0.17784075  0.32920119    -0.81400
O229        O  0.85872871  0.14980704  0.31035562    -0.84200
C230        C  0.94734354  0.10658132  0.24524381     0.96600
C231        C  0.00330777  0.07399946  0.29872731     1.04000
O232        O  0.94019334  0.13881929  0.30830303    -1.13200
O233        O  0.90541248  0.14785893  0.36429187    -0.75600
O234        O  0.91897655  0.08851342  0.35515154    -0.79100
O235        O  0.96484234  0.13661500  0.25070663    -0.79800
C236        C  0.91128922  0.11489767  0.37286923     0.95500
O237        O  0.87426741  0.09164449  0.30089710    -0.77700
O238        O  0.95146753  0.20525473  0.34118986    -0.82900
C239        C  0.93347896  0.22040861  0.27509252     0.98100
C240        C  0.98647134  0.20184839  0.34384686     1.04000
O241        O  0.96603625  0.20873160  0.27969428    -0.78600
C242        C  0.85082587  0.11744609  0.30122434     1.02300
Fe243      Fe  0.92627024  0.43107256  0.46495679     1.65800
Fe244      Fe  0.90246417  0.34603452  0.44098805     1.73200
Fe245      Fe  0.98040127  0.35605658  0.98398662     1.54400
O246        O  0.01069570  0.40512060  0.48573484    -0.82300
O247        O  0.89269355  0.31510140  0.47720932    -0.80600
O248        O  0.98012725  0.43856238  0.45555056    -0.84800
O249        O  0.93553424  0.42986623  0.01047300    -0.79700
O250        O  0.99981988  0.33528631  0.44416814    -0.81400
O251        O  0.85441405  0.37426347  0.45226145    -0.84200
C252        C  0.94465490  0.40554650  0.02942419     0.96600
C253        C  0.00067159  0.43717858  0.47741912     1.04000
O254        O  0.93510601  0.37799979  0.46314500    -1.13200
O255        O  0.91053895  0.37668475  0.40403683    -0.75600
O256        O  0.91719277  0.43468692  0.42061246    -0.79100
O257        O  0.95830314  0.37403824  0.02278299    -0.79800
C258        C  0.91490701  0.41122385  0.39983070     0.95500
O259        O  0.87149941  0.42676546  0.47413566    -0.77700
O260        O  0.94621125  0.31220971  0.42738571    -0.82900
C261        C  0.91948472  0.29753674  0.99181898     0.98100
C262        C  0.98152234  0.31319752  0.42751500     1.04000
O263        O  0.95376844  0.30536576  0.99014507    -0.78600
C264        C  0.84721074  0.40317228  0.46718922     1.02300
Fe265      Fe  0.93414070  0.43891356  0.21496618     1.65800
Fe266      Fe  0.84781513  0.41574485  0.19445902     1.73200
Fe267      Fe  0.86035421  0.49181317  0.23681874     1.54400
O268        O  0.88045188  0.46990092  0.27445830    -0.82300
O269        O  0.81373637  0.45918302  0.18234528    -0.80600
O270        O  0.93498223  0.44517678  0.26035729    -0.84800
O271        O  0.94187462  0.49324307  0.20670055    -0.79700
O272        O  0.81017818  0.46506129  0.24563127    -0.81400
O273        O  0.87680561  0.42313925  0.15638662    -0.84200
C274        C  0.94138935  0.51390894  0.22879169     0.96600
C275        C  0.91108076  0.45404483  0.27982523     1.04000
O276        O  0.88104313  0.44852779  0.21542017    -1.13200
O277        O  0.87608658  0.36750093  0.20427009    -0.75600
O278        O  0.93035161  0.38347722  0.22289255    -0.79100
O279        O  0.90977594  0.52487046  0.23762667    -0.79800
C280        C  0.90610151  0.35935596  0.21696889     0.95500
O281        O  0.93577570  0.43063077  0.17023206    -0.77700
O282        O  0.81759256  0.40654161  0.23156163    -0.82900
C283        C  0.81327738  0.49449672  0.18289969     0.98100
C284        C  0.80143396  0.43086681  0.24701539     1.04000
O285        O  0.83622734  0.51359955  0.19838106    -0.78600
C286        C  0.91098100  0.42716297  0.15068408     1.02300
Fe287      Fe  0.58314448  0.43957263  0.06256608     1.65800
Fe288      Fe  0.66956047  0.41463702  0.08118900     1.73200
Fe289      Fe  0.65657548  0.49491581  0.04474250     1.54400
O290        O  0.63724579  0.47287524  0.50519234    -0.82300
O291        O  0.70031068  0.45826696  0.09919415    -0.80600
O292        O  0.58243790  0.44676381  0.51729852    -0.84800
O293        O  0.57483084  0.49313383  0.07305342    -0.79700
O294        O  0.70825332  0.47165506  0.03596893    -0.81400
O295        O  0.63919011  0.41441373  0.11910201    -0.84200
C296        C  0.57563357  0.51474960  0.05183388     0.96600
C297        C  0.60720471  0.45621867  0.49854630     1.04000
O298        O  0.63613160  0.44931935  0.06287986    -1.13200
O299        O  0.64345830  0.36737134  0.06501279    -0.75600
O300        O  0.58657958  0.38432206  0.05282308    -0.79100
O301        O  0.60717401  0.52695947  0.04445989    -0.79800
C302        C  0.61178285  0.36019857  0.05440929     0.95500
O303        O  0.58121959  0.43009646  0.10702653    -0.77700
O304        O  0.70139853  0.41186933  0.04435864    -0.82900
C305        C  0.69859382  0.49361430  0.10146562     0.98100
C306        C  0.71765158  0.43816805  0.03150241     1.04000
O307        O  0.67732434  0.51345280  0.08530941    -0.78600
C308        C  0.60581204  0.42162878  0.12566940     1.02300
Fe309      Fe  0.08976254  0.58831006  0.31367152     1.65800
Fe310      Fe  0.17975953  0.60750499  0.32523743     1.73200
Fe311      Fe  0.15680830  0.52798791  0.29119096     1.54400
O312        O  0.10499439  0.49978648  0.29396726    -0.82300
O313        O  0.20590541  0.60798035  0.28575151    -0.80600
O314        O  0.07700920  0.53574867  0.32436876    -0.84800
O315        O  0.08474079  0.57931205  0.26820146    -0.79700
O316        O  0.18044668  0.50894978  0.33041445    -0.81400
O317        O  0.15489285  0.65636731  0.31182604    -0.84200
C318        C  0.10654042  0.56669292  0.24820794     0.96600
C319        C  0.07481796  0.51350271  0.30335074     1.04000
O320        O  0.14168859  0.57487931  0.31023246    -1.13200
O321        O  0.15525115  0.60912456  0.36561089    -0.75600
O322        O  0.09500049  0.59856628  0.35840725    -0.79100
O323        O  0.13611869  0.54863833  0.25325856    -0.79800
C324        C  0.12261645  0.60466374  0.37525774     0.95500
O325        O  0.09609121  0.64255954  0.30357201    -0.77700
O326        O  0.21044444  0.56235746  0.34006447    -0.82900
C327        C  0.22079188  0.58002000  0.27395774     0.98100
C328        C  0.20603119  0.52748086  0.34357746     1.04000
O329        O  0.20923430  0.54744198  0.27926729    -0.78600
C330        C  0.12267604  0.66511417  0.30344276     1.02300
Fe331      Fe  0.43787384  0.58607669  0.46026927     1.65800
Fe332      Fe  0.35175402  0.60873639  0.43890372     1.73200
Fe333      Fe  0.36684994  0.53175923  0.97966853     1.54400
O334        O  0.41659655  0.50020729  0.97896012    -0.82300
O335        O  0.32007077  0.61531358  0.47576342    -0.80600
O336        O  0.44676785  0.53214085  0.45103114    -0.84800
O337        O  0.43974399  0.57977763  0.00586518    -0.79700
O338        O  0.34383086  0.51017095  0.43941887    -0.81400
O339        O  0.37824093  0.65739300  0.45167000    -0.84200
C340        C  0.41581431  0.56948034  0.02481895     0.96600
C341        C  0.44568596  0.51113220  0.47266900     1.04000
O342        O  0.38502723  0.57585516  0.45930692    -1.13200
O343        O  0.38255790  0.60423200  0.40134866    -0.75600
O344        O  0.44082966  0.59459816  0.41584953    -0.79100
O345        O  0.38583374  0.55263678  0.01861105    -0.79800
C346        C  0.41676458  0.59937124  0.39599513     0.95500
O347        O  0.43308736  0.64122196  0.46891666    -0.77700
O348        O  0.31997450  0.56413507  0.42393324    -0.82900
C349        C  0.30504904  0.58957354  0.99099072     0.98100
C350        C  0.32144069  0.52873148  0.42331124     1.04000
O351        O  0.31574336  0.55606997  0.98874320    -0.78600
C352        C  0.40844783  0.66528786  0.46436640     1.02300
C353        C  0.27027378  0.50759015  0.35354346    -0.26900
C354        C  0.23341497  0.50987833  0.36353512    -0.15000
C355        C  0.22691791  0.50856906  0.39411539     0.35600
C356        C  0.25713767  0.50863655  0.41362684    -0.26400
C357        C  0.29397723  0.51048601  0.40359587    -0.15600
C358        C  0.30049000  0.50786105  0.37305341     0.36700
N359        N  0.33727160  0.50883666  0.36097654    -0.89900
H360        H  0.27583659  0.50935869  0.33024541     0.17800
H361        H  0.25161475  0.51120128  0.43690227     0.17800
N362        N  0.19016664  0.51023276  0.40619415    -0.88900
H363        H  0.34108495  0.48432424  0.34899007     0.35200
H364        H  0.35718401  0.50854922  0.37750282     0.40300
H365        H  0.17011137  0.50922076  0.38979713     0.39900
H366        H  0.18731489  0.53577129  0.41694273     0.34800
C367        C  0.51129783  0.49425461  0.03802667    -0.26900
C368        C  0.54253010  0.51650686  0.03169773    -0.15000
C369        C  0.54323901  0.53515249  0.00452950     0.35600
C370        C  0.51315478  0.53141816  0.98494103    -0.26400
C371        C  0.48158992  0.50968966  0.99150125    -0.15600
C372        C  0.47912171  0.49157578  0.52009261     0.36700
N373        N  0.44871393  0.46936396  0.52995740    -0.89900
H374        H  0.50865054  0.48133800  0.55976382     0.17800
H375        H  0.51413633  0.54655617  0.96453487     0.17800
N376        N  0.57456181  0.55761901  0.99664065    -0.88900
H377        H  0.44384065  0.44844322  0.51448977     0.35200
H378        H  0.42524104  0.48604695  0.53190964     0.40300
H379        H  0.57528440  0.58020851  0.01108771     0.39900
H380        H  0.57130669  0.56856119  0.97564510     0.34800
C381        C  0.00360834  0.48881306  0.24371221    -0.26900
C382        C  0.97574380  0.51594241  0.24780703    -0.15000
C383        C  0.97997693  0.54104221  0.27146026     0.35600
C384        C  0.01148693  0.53855829  0.28992054    -0.26400
C385        C  0.03933200  0.51135122  0.28570933    -0.15600
C386        C  0.03447894  0.48570874  0.26255726     0.36700
N387        N  0.06079270  0.45629448  0.25824063    -0.89900
H388        H  0.00069568  0.46870008  0.22616126     0.17800
H389        H  0.01474304  0.55882141  0.30732922     0.17800
N390        N  0.95262075  0.56927055  0.27654067    -0.88900
H391        H  0.05348379  0.43985205  0.24022554     0.35200
H392        H  0.05942206  0.43913179  0.27660069     0.40300
H393        H  0.95300404  0.58700867  0.25850757     0.39900
H394        H  0.95963844  0.58542572  0.29480189     0.34800
C395        C  0.78895357  0.52200901  0.13645314    -0.26900
C396        C  0.78258276  0.51129229  0.16560207    -0.15000
C397        C  0.74577553  0.50324992  0.17414669     0.35600
C398        C  0.71697150  0.50314620  0.15335438    -0.26400
C399        C  0.72398148  0.51032116  0.12366142    -0.15600
C400        C  0.76009797  0.52125477  0.11549121     0.36700
N401        N  0.76835219  0.52801668  0.08530771    -0.89900
H402        H  0.81705528  0.52704993  0.12916237     0.17800
H403        H  0.68972981  0.49362792  0.15994288     0.17800
N404        N  0.73823089  0.49140181  0.20347758    -0.88900
H405        H  0.77958087  0.55467666  0.08370039     0.35200
H406        H  0.78856209  0.50904236  0.07856829     0.40300
H407        H  0.72720069  0.46457091  0.20255442     0.39900
H408        H  0.71806781  0.50895841  0.21237660     0.34800
C409        C  0.79865245  0.44639536  0.97839728    -0.26900
C410        C  0.80968486  0.40927444  0.47866929    -0.15000
C411        C  0.79112364  0.38125973  0.49433979     0.35600
C412        C  0.75980449  0.39059242  0.51102147    -0.26400
C413        C  0.74902000  0.42903185  0.01165720    -0.15600
C414        C  0.76753182  0.45627094  0.99500611     0.36700
N415        N  0.75552365  0.49413639  0.99528608    -0.89900
H416        H  0.81361903  0.46787086  0.96676517     0.17800
H417        H  0.74652829  0.36923104  0.52394078     0.17800
N418        N  0.80562731  0.34412336  0.49499173    -0.88900
H419        H  0.77741813  0.51062832  0.00274268     0.35200
H420        H  0.74962391  0.50180942  0.97374950     0.40300
H421        H  0.80255997  0.33278641  0.47401883     0.39900
H422        H  0.78996136  0.32743686  0.50900951     0.34800
C423        C  0.90886795  0.43689257  0.06859312    -0.26900
C424        C  0.93885943  0.41433472  0.06055322    -0.15000
C425        C  0.96206470  0.39966447  0.08240019     0.35600
C426        C  0.95374311  0.40613668  0.11187804    -0.26400
C427        C  0.92224661  0.42641177  0.11986398    -0.15600
C428        C  0.90020218  0.44300911  0.09812835     0.36700
N429        N  0.86887925  0.46549931  0.10617095    -0.89900
H430        H  0.89133513  0.44865578  0.05182517     0.17800
H431        H  0.97097791  0.39372979  0.12855970     0.17800
N432        N  0.99393460  0.37800369  0.07479378    -0.88900
H433        H  0.85541055  0.47534739  0.08752586     0.35200
H434        H  0.87889860  0.48877661  0.11738756     0.40300
H435        H  0.99115139  0.35192307  0.08449251     0.39900
H436        H  0.01723715  0.39094455  0.08375729     0.34800
C437        C  0.91130531  0.47107841  0.33187309    -0.26900
C438        C  0.91815398  0.44439303  0.31019172    -0.15000
C439        C  0.92679851  0.40770080  0.31787119     0.35600
C440        C  0.92664355  0.39796808  0.34744021    -0.26400
C441        C  0.91792495  0.42418277  0.36934940    -0.15600
C442        C  0.91172380  0.46161620  0.36152631     0.36700
N443        N  0.90466525  0.48963475  0.38338564    -0.89900
H444        H  0.90495950  0.49930599  0.32552397     0.17800
H445        H  0.93249004  0.36947155  0.35329034     0.17800
N446        N  0.93388821  0.38014110  0.29562892    -0.88900
H447        H  0.89785704  0.51488003  0.37359361     0.35200
H448        H  0.92948821  0.49433592  0.39451640     0.40300
H449        H  0.90935900  0.37613679  0.28393749     0.39900
H450        H  0.94033826  0.35459246  0.30506989     0.34800
C451        C  0.00133644  0.29506026  0.37765978    -0.26900
C452        C  0.00013920  0.28628040  0.40753101    -0.15000
C453        C  0.00457056  0.24855548  0.41576084     0.35600
C454        C  0.00619436  0.22062131  0.39396996    -0.26400
C455        C  0.00351194  0.22930776  0.36411406    -0.15600
C456        C  0.00271095  0.26704584  0.35606562     0.36700
N457        N  0.99917505  0.27681458  0.32584257    -0.89900
H458        H  0.99708202  0.32354119  0.37093458     0.17800
H459        H  0.00561616  0.19178174  0.40057350     0.17800
N460        N  0.00402052  0.23726140  0.44591207    -0.88900
H461        H  0.02091523  0.29472773  0.32053792     0.35200
H462        H  0.97434148  0.29130268  0.32325441     0.40300
H463        H  0.00334196  0.26020982  0.45996252     0.39900
H464        H  0.02905209  0.22380754  0.45008037     0.34800
C465        C  0.89090064  0.26402718  0.24969919    -0.26900
C466        C  0.92736859  0.25372113  0.25663058    -0.15000
C467        C  0.95683937  0.27620132  0.24667402     0.35600
C468        C  0.94921938  0.30951973  0.23225362    -0.26400
C469        C  0.91269823  0.32084502  0.22687682    -0.15600
C470        C  0.88322087  0.29699223  0.23463873     0.36700
N471        N  0.84550582  0.30697821  0.22855285    -0.89900
H472        H  0.86802989  0.24659026  0.25647854     0.17800
H473        H  0.97216853  0.32716928  0.22593263     0.17800
N474        N  0.99458681  0.26595680  0.25161958    -0.88900
H475        H  0.82717969  0.28752126  0.23737531     0.35200
H476        H  0.84203546  0.30562175  0.20584770     0.40300
H477        H  0.00736813  0.28732507  0.26342603     0.39900
H478        H  0.00779391  0.26382170  0.23127669     0.34800
C479        C  0.26433194  0.63701368  0.01471287    -0.26900
C480        C  0.27368824  0.59934361  0.01070787    -0.15000
C481        C  0.25334657  0.57206753  0.02598841     0.35600
C482        C  0.22448605  0.58304910  0.04460630    -0.26400
C483        C  0.21414133  0.62050413  0.04774871    -0.15600
C484        C  0.23483952  0.64789404  0.03297610     0.36700
N485        N  0.22569141  0.68650728  0.03613095    -0.89900
H486        H  0.27996059  0.65827115  0.00341968     0.17800
H487        H  0.20882740  0.56167733  0.05572460     0.17800
N488        N  0.26122187  0.53320960  0.02217368    -0.88900
H489        H  0.24302570  0.70289409  0.02314058     0.35200
H490        H  0.23089851  0.69409774  0.05785741     0.40300
H491        H  0.25972011  0.52325937  0.50936972     0.39900
H492        H  0.25622952  0.51995415  0.54574239     0.34800
C493        C  0.99271752  0.53656039  0.50958668    -0.26900
C494        C  0.00892957  0.53141361  0.03991370    -0.15000
C495        C  0.02125785  0.49553690  0.04781672     0.35600
C496        C  0.01924039  0.46568732  0.02774743    -0.26400
C497        C  0.00461437  0.47024931  0.99947022    -0.15600
C498        C  0.99037424  0.50661347  0.48961658     0.36700
N499        N  0.97552466  0.51433106  0.46124040    -0.89900
H500        H  0.98509061  0.56405202  0.50224655     0.17800
H501        H  0.02987379  0.43890345  0.03429811     0.17800
N502        N  0.03807285  0.48992209  0.07581933    -0.88900
H503        H  0.95124120  0.49903326  0.45828811     0.35200
H504        H  0.99503434  0.50688899  0.44530913     0.40300
H505        H  0.06496701  0.48008603  0.07239274     0.39900
H506        H  0.02312068  0.46930252  0.08671040     0.34800
C507        C  0.13907077  0.61019887  0.45802141    -0.26900
C508        C  0.10365787  0.60207286  0.46863118    -0.15000
C509        C  0.07495039  0.59425658  0.44864618     0.35600
C510        C  0.08175327  0.59607335  0.41851192    -0.26400
C511        C  0.11686960  0.60520982  0.40756443    -0.15600
C512        C  0.14607749  0.61220932  0.42774446     0.36700
N513        N  0.18262731  0.62169783  0.41770413    -0.89900
H514        H  0.16099098  0.61653457  0.47342222     0.17800
H515        H  0.05940330  0.58973245  0.40353501     0.17800
N516        N  0.03910044  0.58345006  0.45913335    -0.88900
H517        H  0.20096398  0.62407870  0.43530289     0.35200
H518        H  0.18111184  0.64800565  0.40826729     0.40300
H519        H  0.04270891  0.55780833  0.46923149     0.39900
H520        H  0.02083753  0.57903490  0.44173911     0.34800
C521        C  0.09642429  0.61309883  0.21000389    -0.26900
C522        C  0.09929308  0.57562450  0.21753817    -0.15000
C523        C  0.10201761  0.54841322  0.19526642     0.35600
C524        C  0.10382192  0.55929542  0.16610050    -0.26400
C525        C  0.10365447  0.59694457  0.15852044    -0.15600
C526        C  0.09866169  0.62416650  0.18065840     0.36700
N527        N  0.09624057  0.66283269  0.17337868    -0.89900
H528        H  0.09449914  0.63393824  0.22716734     0.17800
H529        H  0.10665954  0.53808078  0.14932518     0.17800
N530        N  0.10274166  0.50953654  0.20155680    -0.88900
H531        H  0.09257680  0.67905836  0.19223287     0.35200
H532        H  0.07244279  0.66619589  0.16080685     0.40300
H533        H  0.07911514  0.50313788  0.21371458     0.39900
H534        H  0.12615919  0.50340231  0.21393687     0.34800
C535        C  0.99104938  0.97291572  0.27243319    -0.26900
C536        C  0.99959509  0.97515118  0.24239526    -0.15000
C537        C  0.01068126  0.01023491  0.23139173     0.35600
C538        C  0.01387449  0.04129035  0.25027951    -0.26400
C539        C  0.00564990  0.03898277  0.28037724    -0.15600
C540        C  0.99411581  0.00405980  0.29130015     0.36700
N541        N  0.98601248  0.99975824  0.32180372    -0.89900
H542        H  0.98335413  0.94641134  0.28173942     0.17800
H543        H  0.02186809  0.06772380  0.24100348     0.17800
N544        N  0.01883046  0.01463157  0.20087816    -0.88900
H545        H  0.00354379  0.97932097  0.33011753     0.35200
H546        H  0.95876764  0.99029935  0.32378976     0.40300
H547        H  0.04598418  0.02434991  0.19890120     0.39900
H548        H  0.00110925  0.03483663  0.19248459     0.34800
C549        C  0.01061681  0.71816099  0.14952786    -0.26900
C550        C  0.01374530  0.72364133  0.11916680    -0.15000
C551        C  0.00982845  0.76020445  0.10838308     0.35600
C552        C  0.00710139  0.79046280  0.12817803    -0.26400
C553        C  0.00940311  0.78523618  0.15853905    -0.15600
C554        C  0.00889825  0.74853652  0.16917966     0.36700
N555        N  0.01012904  0.74211480  0.20008811    -0.89900
H556        H  0.01319836  0.69041562  0.15823392     0.17800
H557        H  0.00726731  0.81843674  0.11981604     0.17800
N558        N  0.01226827  0.76689580  0.07741564    -0.88900
H559        H  0.03417244  0.72714607  0.20470315     0.35200
H560        H  0.98740172  0.72560095  0.20567138     0.40300
H561        H  0.03925885  0.76069848  0.07068948     0.39900
H562        H  0.00825924  0.79502417  0.07297890     0.34800
C563        C  0.14204705  0.71756037  0.27221692    -0.26900
C564        C  0.11567986  0.70204108  0.29105391    -0.15000
C565        C  0.08081294  0.71914274  0.29411935     0.35600
C566        C  0.07260896  0.75087176  0.27791049    -0.26400
C567        C  0.09844950  0.76589711  0.25826031    -0.15600
C568        C  0.13367043  0.74895778  0.25552981     0.36700
N569        N  0.16056074  0.76242089  0.23505200    -0.89900
H570        H  0.16858869  0.70406301  0.26914624     0.17800
H571        H  0.04560341  0.76350828  0.28057555     0.17800
N572        N  0.05348892  0.70418701  0.31356747    -0.88900
H573        H  0.16672091  0.74099114  0.22029300     0.35200
H574        H  0.18470885  0.76883576  0.24658255     0.40300
H575        H  0.02989532  0.69782754  0.30130855     0.39900
H576        H  0.04639493  0.72477772  0.32878995     0.34800
C577        C  0.75042250  0.38688611  0.25841201    -0.26900
C578        C  0.77025175  0.41909349  0.26593319    -0.15000
C579        C  0.75916926  0.43996582  0.29069566     0.35600
C580        C  0.72630172  0.43046833  0.30534040    -0.26400
C581        C  0.70502177  0.39991834  0.29636321    -0.15600
C582        C  0.71793755  0.37701794  0.27318640     0.36700
N583        N  0.69825064  0.34473005  0.26300284    -0.89900
H584        H  0.75914396  0.37007083  0.23988882     0.17800
H585        H  0.71648899  0.44773135  0.32325967     0.17800
N586        N  0.78101319  0.47088877  0.30067046    -0.88900
H587        H  0.68982409  0.34975090  0.24150345     0.35200
H588        H  0.67436315  0.33973688  0.27512274     0.40300
H589        H  0.80655950  0.46045482  0.30746524     0.39900
H590        H  0.76886782  0.48329254  0.31908806     0.34800
C591        C  0.57625097  0.44880842  0.20217557    -0.26900
C592        C  0.58138384  0.41509295  0.21672987    -0.15000
C593        C  0.59498259  0.38385401  0.20132678     0.35600
C594        C  0.60217074  0.38667217  0.17135594    -0.26400
C595        C  0.59568822  0.41985420  0.15657654    -0.15600
C596        C  0.58294473  0.45138263  0.17208891     0.36700
N597        N  0.57769346  0.48640801  0.15800794    -0.89900
H598        H  0.56660266  0.47297019  0.21411997     0.17800
H599        H  0.61288245  0.36289733  0.15941137     0.17800
N600        N  0.60182781  0.34954432  0.21633391    -0.88900
H601        H  0.55781689  0.48313744  0.14161539     0.35200
H602        H  0.60268483  0.49427027  0.14823467     0.40300
H603        H  0.62262363  0.35442794  0.23171852     0.39900
H604        H  0.61200187  0.32937094  0.20184899     0.34800
C605        C  0.59504468  0.39951103  0.42955444    -0.26900
C606        C  0.60300227  0.42575352  0.40766173    -0.15000
C607        C  0.60979394  0.46307599  0.41608070     0.35600
C608        C  0.60930063  0.47278678  0.44595442    -0.26400
C609        C  0.60189809  0.44629686  0.46754043    -0.15600
C610        C  0.59430552  0.40947151  0.45923387     0.36700
N611        N  0.58751708  0.38171506  0.48096187    -0.89900
H612        H  0.58967409  0.37084071  0.42373662     0.17800
H613        H  0.61549987  0.50105652  0.45253400     0.17800
N614        N  0.61793365  0.49087903  0.39453618    -0.88900
H615        H  0.60753234  0.36096416  0.47859667     0.35200
H616        H  0.56164027  0.36982159  0.47681976     0.40300
H617        H  0.64357480  0.48430960  0.38520314     0.39900
H618        H  0.62097851  0.51695559  0.40439658     0.34800
C619        C  0.50113013  0.26009236  0.35653287    -0.26900
C620        C  0.50382543  0.29657502  0.36760582    -0.15000
C621        C  0.50281261  0.30154652  0.39838775     0.35600
C622        C  0.50329501  0.27033026  0.41693538    -0.26400
C623        C  0.50524250  0.23388257  0.40574561    -0.15600
C624        C  0.50209451  0.22884491  0.37505327     0.36700
N625        N  0.50314723  0.19261980  0.36174880    -0.89900
H626        H  0.50265021  0.25561320  0.33305575     0.17800
H627        H  0.50605559  0.27480585  0.44032790     0.17800
N628        N  0.50414745  0.33782876  0.41156894    -0.88900
H629        H  0.47850309  0.18908615  0.35013293     0.35200
H630        H  0.50340808  0.17186587  0.37762297     0.40300
H631        H  0.50325836  0.35861070  0.39570954     0.39900
H632        H  0.52940822  0.34035796  0.42244602     0.34800
C633        C  0.63158177  0.30368787  0.53132426    -0.26900
C634        C  0.60427048  0.32305534  0.04170046    -0.15000
C635        C  0.56823979  0.30797244  0.04118380     0.35600
C636        C  0.56113903  0.27528239  0.02530841    -0.26400
C637        C  0.58931388  0.25713845  0.00947948    -0.15600
C638        C  0.62579759  0.27165835  0.51437217     0.36700
N639        N  0.65708280  0.25372710  0.50126187    -0.89900
H640        H  0.65950662  0.31435424  0.53347760     0.17800
H641        H  0.53315050  0.26448244  0.02507081     0.17800
N642        N  0.53867462  0.32578062  0.05677707    -0.88900
H643        H  0.67543406  0.24670277  0.51799604     0.35200
H644        H  0.67037078  0.27282845  0.48764889     0.40300
H645        H  0.52774084  0.30681886  0.07173647     0.39900
H646        H  0.51793908  0.33233028  0.04174560     0.34800
C647        C  0.25923908  0.62186195  0.24347564    -0.26900
C648        C  0.25351335  0.58619543  0.25501541    -0.15000
C649        C  0.28073779  0.55868163  0.25061470     0.35600
C650        C  0.31365077  0.56805052  0.23613219    -0.26400
C651        C  0.32036901  0.60431849  0.22605710    -0.15600
C652        C  0.29227003  0.63133460  0.22913497     0.36700
N653        N  0.29777772  0.66868287  0.21905465    -0.89900
H654        H  0.23817721  0.64295183  0.24641304     0.17800
H655        H  0.33475726  0.54694355  0.23361571     0.17800
N656        N  0.27600680  0.52195511  0.26221744    -0.88900
H657        H  0.27539112  0.68553059  0.22485219     0.35200
H658        H  0.29830347  0.66779893  0.19614929     0.40300
H659        H  0.29993470  0.50614584  0.25916159     0.39900
H660        H  0.25529117  0.50889515  0.24994780     0.34800
C661        C  0.52747854  0.55174507  0.27108517    -0.26900
C662        C  0.51572881  0.54821996  0.24179835    -0.15000
C663        C  0.50215618  0.51273308  0.23275106     0.35600
C664        C  0.50086825  0.48283601  0.25253206    -0.26400
C665        C  0.51264877  0.48641499  0.28172965    -0.15600
C666        C  0.52597831  0.52166180  0.29087477     0.36700
N667        N  0.53811587  0.52725331  0.32039857    -0.89900
H668        H  0.53719840  0.57838323  0.27905662     0.17800
H669        H  0.49149050  0.45607587  0.24454265     0.17800
N670        N  0.48998023  0.50554259  0.20342771    -0.88900
H671        H  0.52215690  0.54841818  0.32974430     0.35200
H672        H  0.56563342  0.53620380  0.31982583     0.40300
H673        H  0.51090628  0.51328503  0.18884445     0.39900
H674        H  0.46603105  0.52085802  0.19934471     0.34800
C675        C  0.47316411  0.61253726  0.32685245    -0.26900
C676        C  0.44629755  0.60500648  0.30561804    -0.15000
C677        C  0.41088208  0.59296145  0.31398525     0.35600
C678        C  0.40225006  0.59022038  0.34366174    -0.26400
C679        C  0.42855941  0.59920139  0.36516203    -0.15600
C680        C  0.46480450  0.60912026  0.35662265     0.36700
N681        N  0.49281750  0.61686316  0.37794184    -0.89900
H682        H  0.50059252  0.62152025  0.32029384     0.17800
H683        H  0.37452459  0.58178014  0.34985165     0.17800
N684        N  0.38307346  0.58537780  0.29243838    -0.88900
H685        H  0.50224525  0.64397647  0.37474720     0.35200
H686        H  0.51497333  0.59880700  0.37411492     0.40300
H687        H  0.36061735  0.60300888  0.29637474     0.39900
H688        H  0.37401683  0.55805538  0.29520738     0.34800
C689        C  0.42105998  0.62552663  0.09401134    -0.26900
C690        C  0.42261808  0.59768691  0.11543875    -0.15000
C691        C  0.42453775  0.55997008  0.10645465     0.35600
C692        C  0.42394965  0.55133010  0.07644531    -0.26400
C693        C  0.42189844  0.57935857  0.05546092    -0.15600
C694        C  0.42084161  0.61678525  0.06434110     0.36700
N695        N  0.41795265  0.64646172  0.04372097    -0.89900
H696        H  0.41944245  0.65453193  0.10019635     0.17800
H697        H  0.42419497  0.52260472  0.06943007     0.17800
N698        N  0.42627598  0.53054601  0.12755199    -0.88900
H699        H  0.39425822  0.64230113  0.03102601     0.35200
H700        H  0.44119280  0.64578424  0.03006880     0.40300
H701        H  0.40081954  0.52976970  0.13846122     0.39900
H702        H  0.42924623  0.50480339  0.11711493     0.34800
C703        C  0.51782500  0.98104878  0.99949827    -0.26900
C704        C  0.50538013  0.98373379  0.02864853    -0.15000
C705        C  0.48965341  0.01794466  0.03792065     0.35600
C706        C  0.48630334  0.04782564  0.01827985    -0.26400
C707        C  0.49888718  0.04524278  0.98919382    -0.15600
C708        C  0.51392139  0.01055044  0.48202256     0.36700
N709        N  0.52526884  0.00515150  0.45222217    -0.89900
H710        H  0.52502897  0.95366907  0.49316546     0.17800
H711        H  0.47489140  0.07374817  0.02632444     0.17800
N712        N  0.47700406  0.02276027  0.06745288    -0.88900
H713        H  0.50915425  0.98391688  0.44315185     0.35200
H714        H  0.55282723  0.99635068  0.45218594     0.40300
H715        H  0.44892791  0.02970320  0.06689927     0.39900
H716        H  0.49141860  0.04504100  0.07674431     0.34800
C717        C  0.50632636  0.75980670  0.10517701    -0.26900
C718        C  0.50647994  0.79650562  0.11589963    -0.15000
C719        C  0.50976746  0.80228310  0.14634364     0.35600
C720        C  0.51030987  0.77147808  0.16546513    -0.26400
C721        C  0.50639834  0.73490294  0.15487436    -0.15600
C722        C  0.50541939  0.72908436  0.12427191     0.36700
N723        N  0.50057148  0.69217605  0.11275019    -0.89900
H724        H  0.50243798  0.75519744  0.08190188     0.17800
H725        H  0.50963894  0.77625863  0.18891482     0.17800
N726        N  0.50861446  0.83944240  0.15786581    -0.88900
H727        H  0.49999443  0.69254620  0.08985568     0.35200
H728        H  0.47463067  0.68263219  0.11950135     0.40300
H729        H  0.53223669  0.85323889  0.15037632     0.39900
H730        H  0.51014615  0.83918981  0.18072939     0.34800
C731        C  0.45162868  0.71305274  0.48357716    -0.26900
C732        C  0.41515228  0.70314608  0.47620052    -0.15000
C733        C  0.38252835  0.72628997  0.98832315     0.35600
C734        C  0.38931640  0.75836088  0.00528635    -0.26400
C735        C  0.42547440  0.76883748  0.01314861    -0.15600
C736        C  0.45545790  0.74711477  0.00286636     0.36700
N737        N  0.49294549  0.75650734  0.00993028    -0.89900
H738        H  0.47450704  0.69532289  0.47717451     0.17800
H739        H  0.36612379  0.77505928  0.01260607     0.17800
N740        N  0.34513335  0.71567481  0.98158409    -0.88900
H741        H  0.50757919  0.76003142  0.99034841     0.35200
H742        H  0.50466144  0.73423010  0.02115690     0.40300
H743        H  0.34567177  0.72098500  0.45434429     0.39900
H744        H  0.32628495  0.73384942  0.99149564     0.34800
C745        C  0.37724577  0.80431837  0.27516967    -0.26900
C746        C  0.40543409  0.82112951  0.29161179    -0.15000
C747        C  0.44032570  0.80351296  0.29338217     0.35600
C748        C  0.44675597  0.77088294  0.27760699    -0.26400
C749        C  0.41943915  0.75529694  0.25947596    -0.15600
C750        C  0.38390878  0.77178199  0.25898408     0.36700
N751        N  0.35478976  0.75647555  0.24143137    -0.89900
H752        H  0.35037172  0.81750140  0.27364141     0.17800
H753        H  0.47384697  0.75817508  0.27906739     0.17800
N754        N  0.46974573  0.81779781  0.31117557    -0.88900
H755        H  0.34628774  0.77671624  0.22658629     0.35200
H756        H  0.33242513  0.75042185  0.25518939     0.40300
H757        H  0.45974964  0.82191813  0.33245411     0.39900
H758        H  0.47879534  0.84307923  0.30268699     0.34800
C759        C  0.39970723  0.97327906  0.19453915    -0.26900
C760        C  0.41191009  0.94768658  0.21548230    -0.15000
C761        C  0.42673850  0.91338329  0.20617434     0.35600
C762        C  0.42767467  0.90488989  0.17618748    -0.26400
C763        C  0.41417101  0.92982788  0.15525289    -0.15600
C764        C  0.40081629  0.96482961  0.16446953     0.36700
N765        N  0.38749511  0.99120039  0.14348018    -0.89900
H766        H  0.38859916  0.99973203  0.20174472     0.17800
H767        H  0.43855238  0.87828793  0.16912583     0.17800
N768        N  0.43942521  0.88667510  0.22716075    -0.88900
H769        H  0.37915709  0.01571646  0.15392629     0.35200
H770        H  0.36386764  0.97990241  0.13371811     0.40300
H771        H  0.45023051  0.86322579  0.21660154     0.39900
H772        H  0.41636065  0.87763781  0.23900817     0.34800
C773        C  0.42079415  0.88243544  0.41835750    -0.26900
C774        C  0.42006647  0.91725507  0.40516087    -0.15000
C775        C  0.42718879  0.94946471  0.42193155     0.35600
C776        C  0.43525828  0.94620102  0.45173127    -0.26400
C777        C  0.43682144  0.91121152  0.46495709    -0.15600
C778        C  0.42901356  0.87895411  0.44814997     0.36700
N779        N  0.42853597  0.84288946  0.46152020    -0.89900
H780        H  0.41448851  0.85794501  0.40539699     0.17800
H781        H  0.44073565  0.97103199  0.46450442     0.17800
N782        N  0.42569833  0.98572558  0.40930477    -0.88900
H783        H  0.42282108  0.82219876  0.44603586     0.35200
H784        H  0.40669971  0.84253757  0.47659880     0.40300
H785        H  0.39935854  0.98957163  0.40041463     0.39900
H786        H  0.44511046  0.98696761  0.39231841     0.34800
C787        C  0.20724284  0.95192927  0.23587649    -0.26900
C788        C  0.19544067  0.91499484  0.23258356    -0.15000
C789        C  0.21655016  0.88650491  0.24515914     0.35600
C790        C  0.24875148  0.89529394  0.26081010    -0.26400
C791        C  0.26052308  0.93230495  0.26460334    -0.15600
C792        C  0.23953208  0.96099774  0.25151469     0.36700
N793        N  0.25032377  0.99924729  0.25454159    -0.89900
H794        H  0.19079339  0.97397939  0.22649657     0.17800
H795        H  0.26413564  0.87278712  0.27060765     0.17800
N796        N  0.20434936  0.84872762  0.24351675    -0.88900
H797        H  0.23057828  0.01673922  0.24522322     0.35200
H798        H  0.27459003  0.00290843  0.24236703     0.40300
H799        H  0.20049965  0.83908473  0.26486987     0.39900
H800        H  0.22539216  0.83302519  0.23376573     0.34800
C801        C  0.06783075  0.76516019  0.49784999    -0.26900
C802        C  0.09608537  0.74898589  0.01235874    -0.15000
C803        C  0.13214022  0.76320542  0.00798348     0.35600
C804        C  0.13716540  0.79592291  0.99210501    -0.26400
C805        C  0.10872224  0.81173019  0.47715613    -0.15600
C806        C  0.07299502  0.79660357  0.48049659     0.36700
N807        N  0.04178281  0.81361971  0.46674579    -0.89900
H808        H  0.04004825  0.75450042  0.50095224     0.17800
H809        H  0.16477504  0.80745060  0.99009091     0.17800
N810        N  0.16378100  0.74461630  0.01969473    -0.88900
H811        H  0.02280219  0.82103485  0.48308235     0.35200
H812        H  0.02924989  0.79385811  0.45316526     0.40300
H813        H  0.17764876  0.76309924  0.03358780     0.39900
H814        H  0.18150537  0.73802434  0.00229411     0.34800
C815        C  0.29613915  0.00868241  0.40096669    -0.26900
C816        C  0.29006253  0.01246871  0.37076201    -0.15000
C817        C  0.25316816  0.01817637  0.36110866     0.35600
C818        C  0.22338109  0.01477868  0.38104852    -0.26400
C819        C  0.22936780  0.00676012  0.41070344    -0.15600
C820        C  0.26643375  0.00573442  0.42083727     0.36700
N821        N  0.27474420  0.99827592  0.45088240    -0.89900
H822        H  0.32396973  0.00362380  0.40879282     0.17800
H823        H  0.19532733  0.01514249  0.37273473     0.17800
N824        N  0.24468376  0.02362464  0.33069734    -0.88900
H825        H  0.26471492  0.97193976  0.45607146     0.35200
H826        H  0.26104425  0.01790089  0.46390749     0.40300
H827        H  0.26881561  0.02671974  0.31831544     0.39900
H828        H  0.23069061  0.04889108  0.32904898     0.34800
C829        C  0.26739321  0.95403367  0.02332807    -0.26900
C830        C  0.24736056  0.92353753  0.01250411    -0.15000
C831        C  0.25887738  0.88718123  0.01982185     0.35600
C832        C  0.29192669  0.88238697  0.03545436    -0.26400
C833        C  0.31317728  0.91302842  0.04431971    -0.15600
C834        C  0.29984409  0.94916004  0.03921936     0.36700
N835        N  0.31941123  0.98114658  0.04978325    -0.89900
H836        H  0.25853533  0.98214017  0.01882063     0.17800
H837        H  0.30184969  0.85456692  0.03966602     0.17800
N838        N  0.24931460  0.84903593  0.49352082    -0.88900
H839        H  0.30155729  0.99631324  0.06335264     0.35200
H840        H  0.32625350  0.99771259  0.03182844     0.40300
H841        H  0.22393749  0.84173224  0.50291747     0.39900
H842        H  0.25050973  0.83077445  0.01756683     0.34800
C843        C  0.07881980  0.91565688  0.06817139    -0.26900
C844        C  0.09937369  0.94701142  0.06009654    -0.15000
C845        C  0.11482323  0.96994793  0.08234377     0.35600
C846        C  0.11123463  0.95972555  0.11163216    -0.26400
C847        C  0.09339157  0.92673165  0.11931183    -0.15600
C848        C  0.07565210  0.90527823  0.09756555     0.36700
N849        N  0.05457308  0.87300346  0.10544561    -0.89900
H850        H  0.06637216  0.89829126  0.05142650     0.17800
H851        H  0.12404114  0.97681331  0.12839433     0.17800
N852        N  0.13435510  0.00363954  0.07614515    -0.88900
H853        H  0.04349066  0.86024002  0.08679999     0.35200
H854        H  0.03213394  0.88204382  0.11810067     0.40300
H855        H  0.11771364  0.02055132  0.06321663     0.39900
H856        H  0.15888449  0.99744975  0.06500045     0.34800
C857        C  0.11487855  0.92835551  0.34692167    -0.26900
C858        C  0.09011029  0.91570117  0.36843921    -0.15000
C859        C  0.05448487  0.90337063  0.36018045     0.35600
C860        C  0.04484918  0.90336161  0.33045342    -0.26400
C861        C  0.07010247  0.91514205  0.30904858    -0.15600
C862        C  0.10530811  0.92817040  0.31730490     0.36700
N863        N  0.13205725  0.93885588  0.29551779    -0.89900
H864        H  0.14211734  0.93813062  0.35318612     0.17800
H865        H  0.01797175  0.89298394  0.32379746     0.17800
N866        N  0.02881658  0.88965345  0.38169013    -0.88900
H867        H  0.15762737  0.94470273  0.30515164     0.35200
H868        H  0.12298963  0.96368533  0.28625772     0.40300
H869        H  0.04000306  0.86535466  0.39040122     0.39900
H870        H  0.00377892  0.88212992  0.37188429     0.34800
C871        C  0.62430146  0.26068788  0.25377373    -0.26900
C872        C  0.58784867  0.26930639  0.26227246    -0.15000
C873        C  0.55872842  0.24673054  0.25184663     0.35600
C874        C  0.56673397  0.21520227  0.23490278    -0.26400
C875        C  0.60338078  0.20514002  0.22803320    -0.15600
C876        C  0.63234030  0.22919947  0.23683999     0.36700
N877        N  0.67031767  0.22166138  0.23025775    -0.89900
H878        H  0.64705605  0.27806795  0.26089998     0.17800
H879        H  0.54394552  0.19762441  0.22807009     0.17800
N880        N  0.52099835  0.25469327  0.25924104    -0.88900
H881        H  0.67358557  0.22071059  0.20751799     0.35200
H882        H  0.67695398  0.19586214  0.23901468     0.40300
H883        H  0.51009906  0.23184676  0.27035438     0.39900
H884        H  0.50619763  0.25787703  0.23977456     0.34800
C885        C  0.47087711  0.02260199  0.25100104    -0.26900
C886        C  0.47511477  0.01658494  0.28123353    -0.15000
C887        C  0.51092365  0.00763857  0.29169039     0.35600
C888        C  0.54082600  0.00369602  0.27185156    -0.26400
C889        C  0.53653806  0.00952688  0.24159246    -0.15600
C890        C  0.50078153  0.01872938  0.23116580     0.36700
N891        N  0.49476707  0.02385427  0.20033970    -0.89900
H892        H  0.44363340  0.02878725  0.24251328     0.17800
H893        H  0.56808606  0.99758063  0.28034810     0.17800
N894        N  0.51699014  0.00290747  0.32254738    -0.88900
H895        H  0.46717477  0.03070229  0.19622638     0.35200
H896        H  0.49956563  0.99834300  0.18997619     0.40300
H897        H  0.51197710  0.02849566  0.33272706     0.39900
H898        H  0.54466284  0.99639423  0.32668864     0.34800
C899        C  0.57926136  0.12054699  0.34601357    -0.26900
C900        C  0.59700193  0.09813308  0.36663471    -0.15000
C901        C  0.61461390  0.06518515  0.35743377     0.35600
C902        C  0.61540129  0.05624512  0.32747525    -0.26400
C903        C  0.59862524  0.07933238  0.30662535    -0.15600
C904        C  0.57934006  0.11132525  0.31631467     0.36700
N905        N  0.56065898  0.13575050  0.29663523    -0.89900
H906        H  0.56515251  0.14556906  0.35307603     0.17800
H907        H  0.62982919  0.03144930  0.32029738     0.17800
N908        N  0.63251263  0.04157633  0.37834335    -0.88900
H909        H  0.53960084  0.12102460  0.28607158     0.35200
H910        H  0.57965249  0.14548910  0.28117266     0.40300
H911        H  0.65459475  0.05646397  0.38737994     0.39900
H912        H  0.64394576  0.01832757  0.36793943     0.34800
C913        C  0.54117991  0.11111315  0.07760681    -0.26900
C914        C  0.56766509  0.10315992  0.05600342    -0.15000
C915        C  0.60402415  0.09377629  0.06430510     0.35600
C916        C  0.61338862  0.09364432  0.09383674    -0.26400
C917        C  0.58733086  0.10264736  0.11562030    -0.15600
C918        C  0.55055945  0.11101331  0.10741609     0.36700
N919        N  0.52326969  0.12071694  0.12910492    -0.89900
H920        H  0.51337309  0.11863967  0.07108680     0.17800
H921        H  0.64163957  0.08714124  0.09971682     0.17800
N922        N  0.63263608  0.08654198  0.04326662    -0.88900
H923        H  0.49757231  0.12539876  0.11932875     0.35200
H924        H  0.53136637  0.14591931  0.13857436     0.40300
H925        H  0.63521650  0.10969207  0.02973511     0.39900
H926        H  0.62509637  0.06350023  0.03063564     0.34800
C927        C  0.77069124  0.06762523  0.26439506    -0.26900
C928        C  0.74822639  0.09751329  0.25620436    -0.15000
C929        C  0.75785657  0.13360124  0.26570302     0.35600
C930        C  0.79044873  0.13930199  0.28166712    -0.26400
C931        C  0.81377665  0.10958558  0.28870922    -0.15600
C932        C  0.80296346  0.07304100  0.28075987     0.36700
N933        N  0.82494095  0.04145787  0.28883997    -0.89900
H934        H  0.76337845  0.03969107  0.25768622     0.17800
H935        H  0.79797227  0.16740427  0.28778690     0.17800
N936        N  0.73475029  0.16467897  0.25931785    -0.88900
H937        H  0.81367033  0.01687708  0.28047034     0.35200
H938        H  0.82388541  0.03932839  0.31165479     0.40300
H939        H  0.75041609  0.18398314  0.24758643     0.39900
H940        H  0.72682804  0.17700082  0.27915800     0.34800
C941        C  0.85969609  0.22244579  0.52883549    -0.26900
C942        C  0.88731245  0.21103133  0.05110021    -0.15000
C943        C  0.92166477  0.22933923  0.05407130     0.35600
C944        C  0.93113070  0.25768966  0.03474805    -0.26400
C945        C  0.90700306  0.26847222  0.01236698    -0.15600
C946        C  0.86940130  0.25084138  0.50935730     0.36700
N947        N  0.84518328  0.25966365  0.48545047    -0.89900
H948        H  0.83456096  0.20672040  0.52506336     0.17800
H949        H  0.95789947  0.27094921  0.03712259     0.17800
N950        N  0.94747567  0.21875372  0.07628187    -0.88900
H951        H  0.82092249  0.24386995  0.48644462     0.35200
H952        H  0.85861395  0.25207574  0.46602169     0.40300
H953        H  0.95305350  0.24205232  0.08929446     0.39900
H954        H  0.97212809  0.21072137  0.06601439     0.34800
C955        C  0.97445502  0.98880533  0.50797533    -0.26900
C956        C  0.97533327  0.00647079  0.03111013    -0.15000
C957        C  0.01086978  0.01656138  0.04149044     0.35600
C958        C  0.04139239  0.01822091  0.02227563    -0.26400
C959        C  0.03816060  0.00861772  0.99255095    -0.15600
C960        C  0.00517292  0.98760246  0.48872950     0.36700
N961        N  0.00066894  0.97072246  0.46050170    -0.89900
H962        H  0.94768976  0.97971324  0.50001680     0.17800
H963        H  0.06789411  0.02695668  0.03082529     0.17800
N964        N  0.01545909  0.02757100  0.07146423    -0.88900
H965        H  0.97925193  0.98439162  0.44965780     0.35200
H966        H  0.99266334  0.94311932  0.46358526     0.40300
H967        H  0.02561601  0.05475020  0.07187879     0.39900
H968        H  0.03546183  0.01036576  0.08078301     0.34800
C969        C  0.74892036  0.00607390  0.10424001    -0.26900
C970        C  0.78513320  0.00835541  0.11545815    -0.15000
C971        C  0.78960131  0.00676352  0.14605746     0.35600
C972        C  0.75840646  0.00741757  0.16474831    -0.26400
C973        C  0.72230915  0.01055776  0.15356187    -0.15600
C974        C  0.71756069  0.00770662  0.12280890     0.36700
N975        N  0.68154530  0.00888305  0.10959060    -0.89900
H976        H  0.74480309  0.00782879  0.08077789     0.17800
H977        H  0.76274849  0.00991707  0.18815995     0.17800
N978        N  0.82599805  0.00821391  0.15829617    -0.88900
H979        H  0.67994687  0.03319668  0.09731471     0.35200
H980        H  0.66065727  0.01008172  0.12543252     0.40300
H981        H  0.82947567  0.98471469  0.17131164     0.39900
H982        H  0.82749209  0.03148663  0.17198524     0.34800
C983        C  0.74643401  0.13067112  0.00784600    -0.26900
C984        C  0.75652392  0.09380241  0.01347642    -0.15000
C985        C  0.74070161  0.06623685  0.49617286     0.35600
C986        C  0.70953736  0.07589913  0.47964650    -0.26400
C987        C  0.69496102  0.11204483  0.48066073    -0.15600
C988        C  0.71448773  0.13909271  0.99201067     0.36700
N989        N  0.70472282  0.17736346  0.98908114    -0.89900
H990        H  0.76319631  0.15325378  0.01631688     0.17800
H991        H  0.69577448  0.05460925  0.46681336     0.17800
N992        N  0.75338493  0.02859918  0.49603132    -0.88900
H993        H  0.67858839  0.18133091  0.99844412     0.35200
H994        H  0.70387419  0.18398642  0.96684636     0.40300
H995        H  0.75981089  0.02120450  0.47444065     0.39900
H996        H  0.73161536  0.01168494  0.50308550     0.34800
C997        C  0.91533002  0.06863366  0.44789532    -0.26900
C998        C  0.90496356  0.09815581  0.46636234    -0.15000
C999        C  0.89678549  0.13292760  0.45420747     0.35600
C1000       C  0.89925465  0.13748301  0.42376506    -0.26400
C1001       C  0.90944258  0.10792548  0.40498870    -0.15600
C1002       C  0.91815091  0.07311856  0.41744618     0.36700
N1003       N  0.92995297  0.04245050  0.39943125    -0.89900
H1004       H  0.92172678  0.04189752  0.45738887     0.17800
H1005       H  0.89265216  0.16438081  0.41472137     0.17800
N1006       N  0.88498233  0.16316429  0.47265587    -0.88900
H1007       H  0.93335886  0.01852547  0.41197820     0.35200
H1008       H  0.95615895  0.04901581  0.39115915     0.40300
H1009       H  0.85944141  0.15585307  0.48182167     0.39900
H1010       H  0.88039155  0.18697466  0.46025036     0.34800
C1011       C  0.89137620  0.09181458  0.17698922    -0.26900
C1012       C  0.91772572  0.09960386  0.15525169    -0.15000
C1013       C  0.95484157  0.10605256  0.16326568     0.35600
C1014       C  0.96453346  0.10621054  0.19290104    -0.26400
C1015       C  0.93791924  0.09935900  0.21459426    -0.15600
C1016       C  0.90122852  0.09132594  0.20655718     0.36700
N1017       N  0.87346967  0.08488446  0.22841693    -0.89900
H1018       H  0.86278646  0.08694637  0.17105872     0.17800
H1019       H  0.99276153  0.11275059  0.19905122     0.17800
N1020       N  0.98234711  0.11430207  0.14159383    -0.88900
H1021       H  0.86164546  0.05886218  0.22440095     0.35200
H1022       H  0.85278186  0.10490219  0.22605493     0.40300
H1023       H  0.00355730  0.09473964  0.14340396     0.39900
H1024       H  0.99345467  0.14045151  0.14633010     0.34800
Fe1025     Fe  0.92093320  0.10565469  0.56077071     1.65800
Fe1026     Fe  0.83552020  0.10983341  0.58595485     1.73200
Fe1027     Fe  0.86118168  0.03731888  0.54172455     1.54400
O1028       O  0.88551970  0.06151548  0.00421979    -0.82300
O1029       O  0.81721437  0.06261191  0.60595000    -0.80600
O1030       O  0.91265621  0.11575383  0.01751702    -0.84800
O1031       O  0.94794289  0.05964630  0.54839654    -0.79700
O1032       O  0.81183412  0.05829333  0.52570084    -0.81400
O1033       O  0.87375635  0.11600319  0.61988738    -0.84200
C1034       C  0.94347798  0.02524331  0.54692921     0.96600
C1035       C  0.90149987  0.09228978  0.99822907     1.04000
O1036       O  0.87227470  0.08293757  0.56333026    -1.13200
O1037       O  0.84735142  0.15972422  0.56575098    -0.75600
O1038       O  0.90647491  0.15807653  0.57342105    -0.79100
O1039       O  0.91182964  0.01037455  0.55168823    -0.79800
C1040       C  0.87851908  0.17522174  0.56488986     0.95500
O1041       O  0.92842273  0.09390460  0.60410533    -0.77700
O1042       O  0.79540496  0.10521842  0.55479404    -0.82900
C1043       C  0.81485596  0.02838477  0.59950749     0.98100
C1044       C  0.79023695  0.08474165  0.53257473     1.04000
O1045       O  0.83152530  0.01358219  0.57741115    -0.78600
C1046       C  0.90632824  0.10335588  0.62465089     1.02300
Fe1047     Fe  0.58192797  0.09095589  0.71136345     1.65800
Fe1048     Fe  0.66889071  0.11111381  0.68966951     1.73200
Fe1049     Fe  0.65332827  0.03427098  0.72959999     1.54400
O1050       O  0.63670084  0.05693309  0.76850192    -0.82300
O1051       O  0.69842245  0.06531805  0.67372625    -0.80600
O1052       O  0.58157182  0.08120252  0.75640520    -0.84800
O1053       O  0.56971946  0.03776640  0.70074519    -0.79700
O1054       O  0.70603942  0.05615333  0.73691743    -0.81400
O1055       O  0.63792921  0.10944107  0.65223842    -0.84200
C1056       C  0.57057637  0.01526466  0.72153599     0.96600
C1057       C  0.60613037  0.07237588  0.77522016     1.04000
O1058       O  0.63446116  0.07900409  0.70996071    -1.13200
O1059       O  0.64471910  0.16040596  0.70417160    -0.75600
O1060       O  0.58953529  0.14527405  0.72201367    -0.79100
O1061       O  0.60209645  0.00502777  0.73084474    -0.79800
C1062       C  0.61515299  0.16850478  0.71789088     0.95500
O1063       O  0.57937773  0.10230940  0.66713836    -0.77700
O1064       O  0.70140136  0.11545063  0.72580703    -0.82900
C1065       C  0.69617700  0.02989615  0.67363156     0.98100
C1066       C  0.71720836  0.08949553  0.73923788     1.04000
O1067       O  0.67325240  0.01214994  0.68996341    -0.78600
C1068       C  0.60350911  0.10674275  0.64713472     1.02300
Fe1069     Fe  0.08200434  0.93090402  0.96470445     1.65800
Fe1070     Fe  0.16829702  0.90927142  0.94290291     1.73200
Fe1071     Fe  0.15558366  0.98270760  0.48309344     1.54400
O1072       O  0.10500634  0.01329824  0.48575006    -0.82300
O1073       O  0.20008059  0.90442660  0.97961186    -0.80600
O1074       O  0.07283741  0.98366058  0.95290167    -0.84800
O1075       O  0.08392655  0.93529045  0.50992253    -0.79700
O1076       O  0.17493871  0.00762225  0.94188924    -0.81400
O1077       O  0.14195883  0.86075776  0.95587017    -0.84200
C1078       C  0.10856110  0.94497034  0.52861312     0.96600
C1079       C  0.07243253  0.00610155  0.97374334     1.04000
O1080       O  0.13455911  0.94211722  0.96330245    -1.13200
O1081       O  0.13764950  0.91257964  0.90533523    -0.75600
O1082       O  0.07915500  0.91880559  0.92052742    -0.79100
O1083       O  0.13904979  0.96001399  0.52159326    -0.79800
C1084       C  0.10318538  0.91533942  0.90029232     0.95500
O1085       O  0.08785593  0.87662637  0.97549421    -0.77700
O1086       O  0.20015484  0.95352943  0.92775598    -0.82900
C1087       C  0.21673313  0.92453120  0.49124267     0.98100
C1088       C  0.19855909  0.98887695  0.92681407     1.04000
O1089       O  0.20692471  0.95832903  0.48949397    -0.78600
C1090       C  0.11231868  0.85279483  0.96948358     1.02300
Fe1091     Fe  0.42899725  0.93577673  0.81013792     1.65800
Fe1092     Fe  0.34220612  0.91253325  0.83030030     1.73200
Fe1093     Fe  0.35644094  0.99002048  0.79115079     1.54400
O1094       O  0.40690502  0.02032816  0.78768864    -0.82300
O1095       O  0.31013162  0.90791588  0.79338174    -0.80600
O1096       O  0.43936347  0.98973315  0.81859176    -0.84800
O1097       O  0.42807075  0.94218950  0.76446088    -0.79700
O1098       O  0.33700104  0.01159437  0.83122408    -0.81400
O1099       O  0.36775313  0.86414819  0.81637189    -0.84200
C1100       C  0.40305482  0.95069535  0.74577225     0.96600
C1101       C  0.43852860  0.01044104  0.79676333     1.04000
O1102       O  0.37625501  0.94576754  0.81079385    -1.13200
O1103       O  0.37268879  0.91431374  0.86817933    -0.75600
O1104       O  0.43094755  0.92815977  0.85497114    -0.79100
O1105       O  0.37271948  0.96671158  0.75246849    -0.79800
C1106       C  0.40638974  0.92092091  0.87415869     0.95500
O1107       O  0.42405941  0.88056799  0.80206939    -0.77700
O1108       O  0.31203528  0.95757289  0.84617867    -0.82900
C1109       C  0.29388061  0.93446964  0.78085444     0.98100
C1110       C  0.31428783  0.99294967  0.84723938     1.04000
O1111       O  0.30402780  0.96767646  0.78525618    -0.78600
C1112       C  0.39908167  0.85653965  0.80530728     1.02300
Fe1113     Fe  0.42625185  0.93380451  0.55980724     1.65800
Fe1114     Fe  0.40966855  0.84554175  0.58037317     1.73200
Fe1115     Fe  0.48724939  0.86514624  0.54276847     1.54400
O1116       O  0.46184230  0.88195859  0.00286136    -0.82300
O1117       O  0.45572362  0.81790863  0.59657472    -0.80600
O1118       O  0.43650200  0.93748862  0.01387229    -0.84800
O1119       O  0.47831731  0.94889917  0.57022438    -0.79700
O1120       O  0.46851947  0.81121251  0.53520938    -0.81400
O1121       O  0.40891590  0.87637675  0.61819760    -0.84200
C1122       C  0.50095432  0.94907612  0.54950853     0.96600
C1123       C  0.44481054  0.91145408  0.99571509     1.04000
O1124       O  0.44075413  0.88187208  0.56124379    -1.13200
O1125       O  0.35990767  0.86755072  0.56642261    -0.75600
O1126       O  0.37247944  0.92409320  0.55011458    -0.79100
O1127       O  0.51387972  0.91796543  0.54112838    -0.79800
C1128       C  0.35034924  0.89764103  0.55441782     0.95500
O1129       O  0.41521810  0.93559388  0.60428785    -0.77700
O1130       O  0.40835122  0.81352850  0.54325602    -0.82900
C1131       C  0.49065740  0.82250868  0.59848369     0.98100
C1132       C  0.43600846  0.79918974  0.53054614     1.04000
O1133       O  0.50825999  0.84671994  0.58315720    -0.78600
C1134       C  0.41095743  0.91089755  0.62388601     1.02300
Fe1135     Fe  0.43087228  0.58755692  0.70979450     1.65800
Fe1136     Fe  0.40973855  0.67502971  0.69020728     1.73200
Fe1137     Fe  0.48646990  0.65973096  0.73024481     1.54400
O1138       O  0.46520596  0.64027530  0.76848267    -0.82300
O1139       O  0.45430441  0.70761078  0.67686317    -0.80600
O1140       O  0.43855981  0.58619363  0.75511935    -0.84800
O1141       O  0.48449483  0.57747972  0.70053062    -0.79700
O1142       O  0.46237155  0.71106301  0.73942596    -0.81400
O1143       O  0.41405974  0.64591640  0.65170028    -0.84200
C1144       C  0.50587020  0.57807539  0.72197694     0.96600
C1145       C  0.44934654  0.60966743  0.77443699     1.04000
O1146       O  0.44199344  0.64044112  0.71006493    -1.13200
O1147       O  0.36081686  0.64820814  0.70108749    -0.75600
O1148       O  0.37584980  0.59285195  0.71833345    -0.79100
O1149       O  0.51778536  0.60969017  0.73004665    -0.79800
C1150       C  0.35220701  0.61756762  0.71281412     0.95500
O1151       O  0.42182111  0.58688485  0.66529599    -0.77700
O1152       O  0.40328883  0.70531454  0.72779309    -0.82900
C1153       C  0.48956807  0.70614487  0.67635896     0.98100
C1154       C  0.42880782  0.72126951  0.74192553     1.04000
O1155       O  0.50787710  0.68238141  0.69135003    -0.78600
C1156       C  0.41743552  0.61156638  0.64580060     1.02300
Fe1157     Fe  0.57646432  0.08745356  0.96067478     1.65800
Fe1158     Fe  0.60018600  0.17422338  0.94114428     1.73200
Fe1159     Fe  0.52525030  0.16210322  0.48056312     1.54400
O1160       O  0.49426528  0.11170118  0.48202927    -0.82300
O1161       O  0.60533126  0.20730438  0.97746908    -0.80600
O1162       O  0.52312091  0.08018790  0.94950299    -0.84800
O1163       O  0.57124151  0.08915216  0.50687899    -0.79700
O1164       O  0.50177673  0.18322220  0.94208610    -0.81400
O1165       O  0.64782971  0.14739012  0.95543238    -0.84200
C1166       C  0.56267877  0.11409521  0.52578995     0.96600
C1167       C  0.50147462  0.07979842  0.97082300     1.04000
O1168       O  0.56680905  0.14074147  0.96105791    -1.13200
O1169       O  0.59784259  0.14373120  0.90315668    -0.75600
O1170       O  0.58788029  0.08506281  0.91652155    -0.79100
O1171       O  0.54707906  0.14465490  0.51930724    -0.79800
C1172       C  0.59383217  0.10953964  0.89720914     0.95500
O1173       O  0.63090428  0.09168929  0.97111054    -0.77700
O1174       O  0.55604213  0.20538406  0.92537567    -0.82900
C1175       C  0.58143507  0.22517541  0.49101951     0.98100
C1176       C  0.52069841  0.20474303  0.92541331     1.04000
O1177       O  0.54816729  0.21430927  0.48829895    -0.78600
C1178       C  0.65496753  0.11681196  0.96797031     1.02300
Fe1179     Fe  0.59038029  0.43667767  0.81208364     1.65800
Fe1180     Fe  0.60749550  0.34949923  0.83521306     1.73200
Fe1181     Fe  0.53145561  0.36615523  0.79518925     1.54400
O1182       O  0.50338412  0.41802047  0.79342554    -0.82300
O1183       O  0.61203278  0.31664500  0.79864038    -0.80600
O1184       O  0.53781679  0.45153436  0.82189457    -0.84800
O1185       O  0.58104905  0.43602724  0.76676693    -0.79700
O1186       O  0.50901995  0.34740762  0.83489483    -0.81400
O1187       O  0.65772422  0.37291685  0.82291589    -0.84200
C1188       C  0.57103681  0.41056551  0.74878175     0.96600
C1189       C  0.51489262  0.44991375  0.80138880     1.04000
O1190       O  0.57663802  0.38449782  0.81440606    -1.13200
O1191       O  0.60469641  0.38118656  0.87245828    -0.75600
O1192       O  0.60104469  0.43978081  0.85667016    -0.79100
O1193       O  0.55416694  0.38116567  0.75634198    -0.79800
C1194       C  0.60332079  0.41596827  0.87713317     0.95500
O1195       O  0.64429415  0.42670984  0.80199424    -0.77700
O1196       O  0.56138295  0.32017569  0.84989784    -0.82900
C1197       C  0.58557690  0.30161696  0.78488623     0.98100
C1198       C  0.52620820  0.32325552  0.85030238     1.04000
O1199       O  0.55251826  0.31293696  0.78818960    -0.78600
C1200       C  0.66679076  0.40122715  0.80815735     1.02300
Fe1201     Fe  0.07995374  0.93001588  0.71417627     1.65800
Fe1202     Fe  0.10356885  0.84336847  0.69399197     1.73200
Fe1203     Fe  0.02661363  0.85658868  0.73488155     1.54400
O1204       O  0.04797288  0.87645146  0.77315970    -0.82300
O1205       O  0.05981431  0.80995821  0.68041573    -0.80600
O1206       O  0.07173628  0.93158597  0.75958744    -0.84800
O1207       O  0.02626715  0.93815562  0.70436508    -0.79700
O1208       O  0.05204363  0.80574413  0.74344397    -0.81400
O1209       O  0.09834908  0.87215342  0.65574899    -0.84200
C1210       C  0.00476604  0.93791631  0.72585178     0.96600
C1211       C  0.06309972  0.90752860  0.77896406     1.04000
O1212       O  0.07034736  0.87692123  0.71429427    -1.13200
O1213       O  0.15186753  0.87112706  0.70558487    -0.75600
O1214       O  0.13461341  0.92568402  0.72363588    -0.79100
O1215       O  0.99454967  0.90639090  0.73534029    -0.79800
C1216       C  0.15905352  0.90146375  0.71862332     0.95500
O1217       O  0.08988789  0.93119461  0.66955215    -0.77700
O1218       O  0.11077370  0.81335447  0.73110003    -0.82900
C1219       C  0.02452242  0.81018783  0.68028949     0.98100
C1220       C  0.08594946  0.79648140  0.74523387     1.04000
O1221       O  0.00548953  0.83312999  0.69589083    -0.78600
C1222       C  0.09407141  0.90627127  0.64995008     1.02300
Fe1223     Fe  0.10993159  0.58698479  0.56373345     1.65800
Fe1224     Fe  0.11673474  0.67409856  0.58577623     1.73200
Fe1225     Fe  0.04280597  0.64732951  0.54407149     1.54400
O1226       O  0.06354406  0.61990129  0.00799039    -0.82300
O1227       O  0.06996876  0.69429059  0.60619748    -0.80600
O1228       O  0.11843212  0.59387036  0.01982226    -0.84800
O1229       O  0.06330880  0.55957494  0.55271772    -0.79700
O1230       O  0.06322841  0.69656469  0.52759790    -0.81400
O1231       O  0.12310599  0.63760707  0.62086145    -0.84200
C1232       C  0.02925300  0.56494878  0.54987008     0.96600
C1233       C  0.09421782  0.60431214  0.00105714     1.04000
O1234       O  0.08852052  0.63638965  0.56497448    -1.13200
O1235       O  0.16568796  0.66005006  0.56462388    -0.75600
O1236       O  0.16278373  0.60163574  0.57485775    -0.79100
O1237       O  0.01515810  0.59709540  0.55387743    -0.79800
C1238       C  0.18019740  0.62835709  0.56408825     0.95500
O1239       O  0.09849016  0.58282160  0.60763793    -0.77700
O1240       O  0.11268644  0.71276028  0.55346600    -0.86100
C1241       C  0.03525356  0.69465122  0.60159313     0.98100
C1242       C  0.09083355  0.71749314  0.53228236     1.04000
O1243       O  0.01983188  0.67657953  0.58048390    -0.78600
C1244       C  0.10870598  0.60615188  0.62721513     1.02300
Fe1245     Fe  0.92686201  0.08612213  0.81145463     1.65800
Fe1246     Fe  0.90777227  0.17579108  0.82638756     1.73200
Fe1247     Fe  0.98549123  0.15475875  0.78965792     1.54400
O1248       O  0.01392124  0.10308122  0.79037836    -0.82300
O1249       O  0.90504717  0.20359414  0.78774307    -0.80600
O1250       O  0.97978236  0.07355937  0.82108745    -0.84800
O1251       O  0.93443077  0.08260217  0.76577482    -0.79700
O1252       O  0.00609265  0.17730493  0.82915417    -0.81400
O1253       O  0.85868215  0.15066091  0.81411146    -0.84200
C1254       C  0.94558248  0.10541169  0.74608741     0.96600
C1255       C  0.00157681  0.07236074  0.79979849     1.04000
O1256       O  0.93971151  0.13845907  0.80931694    -1.13200
O1257       O  0.90845010  0.14963373  0.86577403    -0.75600
O1258       O  0.91758949  0.08935985  0.85633561    -0.79100
O1259       O  0.96360525  0.13510133  0.75149190    -0.79800
C1260       C  0.91250615  0.11636661  0.87412197     0.95500
O1261       O  0.87251050  0.09252169  0.80244657    -0.77700
O1262       O  0.95308027  0.20656813  0.84063833    -0.82900
C1263       C  0.93227698  0.21867180  0.77517597     0.98100
C1264       C  0.98799675  0.20252252  0.84323346     1.04000
O1265       O  0.96506736  0.20736909  0.77960606    -0.78600
C1266       C  0.84982556  0.11885856  0.80443124     1.02300
Fe1267     Fe  0.92861422  0.43113833  0.96508059     1.65800
Fe1268     Fe  0.90532053  0.34607051  0.94067778     1.73200
Fe1269     Fe  0.97776809  0.35600520  0.48343066     1.54400
O1270       O  0.01325850  0.40514866  0.98664458    -0.82300
O1271       O  0.89582726  0.31398305  0.97637956    -0.80600
O1272       O  0.98266081  0.43867322  0.95664428    -0.84800
O1273       O  0.93438081  0.43033698  0.51025673    -0.79700
O1274       O  0.00289486  0.33515856  0.94461527    -0.81400
O1275       O  0.85691467  0.37359987  0.95251499    -0.84200
C1276       C  0.94293489  0.40537048  0.52885804     0.96600
C1277       C  0.00258029  0.43719153  0.97886914     1.04000
O1278       O  0.93769403  0.37799010  0.96330553    -1.13200
O1279       O  0.91271965  0.37754456  0.90399608    -0.75600
O1280       O  0.92034796  0.43555588  0.92054599    -0.79100
O1281       O  0.95568345  0.37375088  0.52178728    -0.79800
C1282       C  0.91711810  0.41207790  0.89982920     0.95500
O1283       O  0.87367656  0.42687556  0.97333142    -0.77700
O1284       O  0.94952372  0.31316880  0.92642732    -0.82900
C1285       C  0.91643983  0.29823546  0.49227280     0.98100
C1286       C  0.98484563  0.31385038  0.92707887     1.04000
O1287       O  0.95084668  0.30540894  0.49004180    -0.78600
C1288       C  0.84947367  0.40304606  0.96674282     1.02300
Fe1289     Fe  0.93399270  0.43500821  0.71433063     1.65800
Fe1290     Fe  0.84674693  0.41467908  0.69407239     1.73200
Fe1291     Fe  0.86234632  0.49160062  0.73454743     1.54400
O1292       O  0.88113066  0.47000491  0.77295368    -0.82300
O1293       O  0.81447583  0.45913905  0.68083107    -0.80600
O1294       O  0.93454580  0.44229283  0.75975998    -0.84800
O1295       O  0.94472779  0.48857912  0.70556742    -0.79700
O1296       O  0.81080609  0.46760210  0.74325990    -0.81400
O1297       O  0.87583712  0.41971244  0.65597967    -0.84200
C1298       C  0.94439587  0.50970390  0.72736865     0.96600
C1299       C  0.91099467  0.45297251  0.77900575     1.04000
O1300       O  0.88136705  0.44680284  0.71427657    -1.13200
O1301       O  0.87299584  0.36544467  0.70471289    -0.75600
O1302       O  0.92802108  0.38005547  0.72259988    -0.79100
O1303       O  0.91305368  0.52246908  0.73518815    -0.79800
C1304       C  0.90310213  0.35658463  0.71698284     0.95500
O1305       O  0.93511481  0.42598869  0.66969305    -0.77700
O1306       O  0.81654060  0.40822066  0.73144740    -0.82900
C1307       C  0.81588224  0.49444347  0.68022092     0.98100
C1308       C  0.80084137  0.43388287  0.74579212     1.04000
O1309       O  0.83971669  0.51302564  0.69529692    -0.78600
C1310       C  0.91006580  0.42295344  0.65028497     1.02300
Fe1311     Fe  0.58121920  0.44007107  0.56305124     1.65800
Fe1312     Fe  0.66735119  0.41486346  0.58246373     1.73200
Fe1313     Fe  0.65540749  0.49391853  0.54443020     1.54400
O1314       O  0.63838691  0.47521518  0.00530502    -0.82300
O1315       O  0.69920927  0.45853394  0.59934159    -0.80600
O1316       O  0.58402483  0.44805019  0.01719326    -0.84800
O1317       O  0.57400323  0.49405150  0.57263499    -0.79700
O1318       O  0.70665609  0.46983211  0.53687409    -0.81400
O1319       O  0.63678152  0.41655288  0.62030821    -0.84200
C1320       C  0.57474286  0.51497785  0.55101009     0.96600
C1321       C  0.60844450  0.45851967  0.99852790     1.04000
O1322       O  0.63433527  0.44924371  0.56343293    -1.13200
O1323       O  0.64036462  0.36759604  0.56747368    -0.75600
O1324       O  0.58384150  0.38455422  0.55434330    -0.79100
O1325       O  0.60632372  0.52643547  0.54302667    -0.79800
C1326       C  0.60886680  0.36034914  0.55658453     0.95500
O1327       O  0.57882701  0.43187990  0.60773679    -0.77700
O1328       O  0.69910687  0.41024081  0.54547797    -0.82900
C1329       C  0.69850661  0.49399111  0.60072877     0.98100
C1330       C  0.71545017  0.43627721  0.53230539     1.04000
O1331       O  0.67682922  0.51361624  0.58464638    -0.78600
C1332       C  0.60327890  0.42371192  0.62659675     1.02300
Fe1333     Fe  0.08901720  0.58459447  0.81418171     1.65800
Fe1334     Fe  0.17835859  0.60520579  0.82683096     1.73200
Fe1335     Fe  0.15769346  0.52632944  0.79082654     1.54400
O1336       O  0.10686217  0.49630579  0.79384941    -0.82300
O1337       O  0.20359094  0.60851585  0.78719093    -0.80600
O1338       O  0.07796804  0.53144838  0.82437202    -0.84800
O1339       O  0.08434954  0.57657165  0.76845608    -0.79700
O1340       O  0.18230516  0.50699339  0.82978044    -0.81400
O1341       O  0.15208673  0.65395314  0.81565241    -0.84200
C1342       C  0.10631113  0.56468998  0.74828051     0.96600
C1343       C  0.07635148  0.50920715  0.80332500     1.04000
O1344       O  0.14123116  0.57231438  0.81074883    -1.13200
O1345       O  0.15390505  0.60402647  0.86706067    -0.75600
O1346       O  0.09364439  0.59415709  0.85913786    -0.79100
O1347       O  0.13597246  0.54670803  0.75309516    -0.79800
C1348       C  0.12109167  0.59960897  0.87630736     0.95500
O1349       O  0.09411300  0.63935065  0.80491679    -0.77700
O1350       O  0.21093631  0.56079272  0.84010276    -0.82900
C1351       C  0.21824771  0.58200846  0.77327596     0.98100
C1352       C  0.20723881  0.52586693  0.84338724     1.04000
O1353       O  0.20898592  0.54854756  0.77829686    -0.78600
C1354       C  0.12011418  0.66250682  0.80670992     1.02300
Fe1355     Fe  0.43913239  0.58797977  0.96066559     1.65800
Fe1356     Fe  0.35216426  0.60915093  0.93996741     1.73200
Fe1357     Fe  0.36447123  0.53167700  0.47903078     1.54400
O1358       O  0.41398646  0.49982272  0.48058844    -0.82300
O1359       O  0.32033902  0.61516226  0.97654923    -0.80600
O1360       O  0.44937541  0.53442391  0.95057316    -0.84800
O1361       O  0.43695023  0.57922229  0.50568729    -0.79700
O1362       O  0.34465759  0.51082010  0.94023793    -0.81400
O1363       O  0.37783908  0.65805335  0.95301640    -0.84200
C1364       C  0.41193837  0.57051503  0.52431640     0.96600
C1365       C  0.44823875  0.51242754  0.97164317     1.04000
O1366       O  0.38630618  0.57662088  0.96014808    -1.13200
O1367       O  0.38246814  0.60504444  0.90228917    -0.75600
O1368       O  0.44126537  0.59762677  0.91621489    -0.79100
O1369       O  0.38187082  0.55403981  0.51773906    -0.79800
C1370       C  0.41663699  0.60108868  0.89659890     0.95500
O1371       O  0.43278428  0.64277630  0.97057702    -0.77700
O1372       O  0.32053277  0.56463614  0.92494143    -0.82900
C1373       C  0.30438965  0.58982790  0.49010854     0.98100
C1374       C  0.32197197  0.52928767  0.92433696     1.04000
O1375       O  0.31314289  0.55607484  0.48619117    -0.78600
C1376       C  0.40746872  0.66628239  0.96637246     1.02300
C1377       C  0.27126695  0.50526805  0.85454614    -0.26900
C1378       C  0.23431896  0.50895994  0.86401905    -0.15000
C1379       C  0.22744709  0.51008032  0.89451124     0.35600
C1380       C  0.25717231  0.51076647  0.91441546    -0.26400
C1381       C  0.29424737  0.51097682  0.90478559    -0.15600
C1382       C  0.30118530  0.50621921  0.87441336     0.36700
N1383       N  0.33815786  0.50563721  0.86271299    -0.89900
H1384       H  0.27721658  0.50534747  0.83126389     0.17800
H1385       H  0.25121033  0.51515283  0.93746147     0.17800
N1386       N  0.19057335  0.51378801  0.90575351    -0.88900
H1387       H  0.34167493  0.48024923  0.85185742     0.35200
H1388       H  0.35780049  0.50618138  0.87942527     0.40300
H1389       H  0.17503497  0.49124736  0.89816404     0.39900
H1390       H  0.17890211  0.53800147  0.89736709     0.34800
C1391       C  0.50961968  0.49558210  0.53894462    -0.26900
C1392       C  0.54122217  0.51662228  0.53136005    -0.15000
C1393       C  0.54160078  0.53398050  0.50367279     0.35600
C1394       C  0.51111636  0.52961544  0.48456602    -0.26400
C1395       C  0.47925244  0.50896978  0.49231010    -0.15600
C1396       C  0.48145617  0.49038116  0.01847640     0.36700
N1397       N  0.45189593  0.46599782  0.02663347    -0.89900
H1398       H  0.51025975  0.47873945  0.05826550     0.17800
H1399       H  0.51198559  0.54352797  0.46361625     0.17800
N1400       N  0.57289026  0.55591951  0.49484576    -0.88900
H1401       H  0.44854190  0.44611635  0.01008673     0.35200
H1402       H  0.42752139  0.48125874  0.02887731     0.40300
H1403       H  0.57401157  0.57905469  0.50872357     0.39900
H1404       H  0.56924144  0.56608090  0.47363775     0.34800
C1405       C  0.00534247  0.48284510  0.74404578    -0.26900
C1406       C  0.97807229  0.51081147  0.74718257    -0.15000
C1407       C  0.98202248  0.53610734  0.77072742     0.35600
C1408       C  0.01309751  0.53361059  0.78957109    -0.26400
C1409       C  0.04087728  0.50628285  0.78582515    -0.15600
C1410       C  0.03590544  0.47985579  0.76327116     0.36700
N1411       N  0.06190239  0.44998661  0.75984068    -0.89900
H1412       H  0.00237080  0.46230648  0.72680903     0.17800
H1413       H  0.01622335  0.55417256  0.80677554     0.17800
N1414       N  0.95481447  0.56460457  0.77531185    -0.88900
H1415       H  0.05449823  0.43291859  0.74221704     0.35200
H1416       H  0.06017173  0.43359895  0.77862950     0.40300
H1417       H  0.95586533  0.58229837  0.75725991     0.39900
H1418       H  0.96145194  0.58072747  0.79366738     0.34800
C1419       C  0.79202533  0.51896280  0.63241795    -0.26900
C1420       C  0.78599497  0.51200666  0.66234181    -0.15000
C1421       C  0.74898409  0.50811856  0.67201693     0.35600
C1422       C  0.71947366  0.50760729  0.65174954    -0.26400
C1423       C  0.72584082  0.51095156  0.62150729    -0.15600
C1424       C  0.76242395  0.51828023  0.61206346     0.36700
N1425       N  0.77008062  0.52170542  0.58141523    -0.89900
H1426       H  0.82011063  0.52131498  0.62434249     0.17800
H1427       H  0.69185838  0.50103576  0.65948569     0.17800
N1428       N  0.74161336  0.50117695  0.70234236    -0.88900
H1429       H  0.78302195  0.54730302  0.57807715     0.35200
H1430       H  0.78873505  0.50082792  0.57541889     0.40300
H1431       H  0.72836175  0.47546543  0.70402465     0.39900
H1432       H  0.72335722  0.52157964  0.70993563     0.34800
C1433       C  0.79541915  0.44538596  0.47849383    -0.26900
C1434       C  0.81181107  0.40978952  0.97788450    -0.15000
C1435       C  0.79228227  0.38200671  0.99307784     0.35600
C1436       C  0.76108669  0.39191907  0.00971863    -0.26400
C1437       C  0.74646900  0.42725750  0.51215311    -0.15600
C1438       C  0.76360486  0.45461732  0.49456052     0.36700
N1439       N  0.74918682  0.49175639  0.49333955    -0.89900
H1440       H  0.80980668  0.46672996  0.46628159     0.17800
H1441       H  0.74692097  0.37053913  0.02201323     0.17800
N1442       N  0.80567483  0.34444616  0.99336299    -0.88900
H1443       H  0.76581016  0.50854384  0.48008168     0.35200
H1444       H  0.72334973  0.49032904  0.48316311     0.40300
H1445       H  0.80242737  0.33358711  0.97225782     0.39900
H1446       H  0.78944242  0.32797303  0.00714570     0.34800
C1447       C  0.91005223  0.43812410  0.56887392    -0.26900
C1448       C  0.93761737  0.41303055  0.56013964    -0.15000
C1449       C  0.95827925  0.39391213  0.58150232     0.35600
C1450       C  0.94995601  0.39900358  0.61104812    -0.26400
C1451       C  0.92103687  0.42233491  0.61957795    -0.15600
C1452       C  0.90136402  0.44282251  0.59853469     0.36700
N1453       N  0.87243446  0.46786695  0.60740102    -0.89900
H1454       H  0.89432611  0.45301228  0.55254520     0.17800
H1455       H  0.96513817  0.38342417  0.62731360     0.17800
N1456       N  0.98747474  0.36898744  0.57335449    -0.88900
H1457       H  0.86056344  0.48054002  0.58917136     0.35200
H1458       H  0.88462087  0.48903073  0.61984545     0.40300
H1459       H  0.98106766  0.34272002  0.58158973     0.39900
H1460       H  0.01186905  0.37811380  0.58332728     0.34800
C1461       C  0.90467438  0.46923911  0.83139247    -0.26900
C1462       C  0.91769184  0.44441264  0.80992434    -0.15000
C1463       C  0.93309527  0.41014192  0.81834663     0.35600
C1464       C  0.93381077  0.40094362  0.84807174    -0.26400
C1465       C  0.91899835  0.42495071  0.86938698    -0.15600
C1466       C  0.90512901  0.45978489  0.86103052     0.36700
N1467       N  0.88987751  0.48486290  0.88230964    -0.89900
H1468       H  0.89293951  0.49566560  0.82504942     0.17800
H1469       H  0.94501786  0.37435287  0.85456259     0.17800
N1470       N  0.94618615  0.38403767  0.79674072    -0.88900
H1471       H  0.86231764  0.49000951  0.87673191     0.35200
H1472       H  0.90440162  0.50991150  0.88100096     0.40300
H1473       H  0.92325385  0.37483578  0.78482288     0.39900
H1474       H  0.95736089  0.36057012  0.80675660     0.34800
C1475       C  0.00310808  0.29618074  0.87651873    -0.26900
C1476       C  0.00368943  0.28752786  0.90646670    -0.15000
C1477       C  0.00999278  0.24996307  0.91444831     0.35600
C1478       C  0.01081835  0.22194098  0.89261356    -0.26400
C1479       C  0.00592522  0.23039111  0.86287832    -0.15600
C1480       C  0.00420384  0.26813174  0.85486684     0.36700
N1481       N  0.99973891  0.27780412  0.82469505    -0.89900
H1482       H  0.99787921  0.32452918  0.86989665     0.17800
H1483       H  0.01145541  0.19312807  0.89926652     0.17800
N1484       N  0.01222714  0.23880627  0.94456244    -0.88900
H1485       H  0.02113916  0.29594974  0.81899706     0.35200
H1486       H  0.97468678  0.29199649  0.82250266     0.40300
H1487       H  0.01179482  0.26178957  0.95856702     0.39900
H1488       H  0.03805574  0.22631510  0.94748976     0.34800
C1489       C  0.88849139  0.26210363  0.75099210    -0.26900
C1490       C  0.92530704  0.25129096  0.75627805    -0.15000
C1491       C  0.95433429  0.27292866  0.74464006     0.35600
C1492       C  0.94616078  0.30593321  0.73004828    -0.26400
C1493       C  0.90948408  0.31800291  0.72657527    -0.15600
C1494       C  0.88022141  0.29505550  0.73614324     0.36700
N1495       N  0.84233036  0.30615745  0.73234065    -0.89900
H1496       H  0.86586309  0.24532485  0.75917342     0.17800
H1497       H  0.96888431  0.32296896  0.72232495     0.17800
N1498       N  0.99222834  0.26230315  0.74825265    -0.88900
H1499       H  0.82436296  0.28729811  0.74237762     0.35200
H1500       H  0.83659091  0.30482308  0.70994438     0.40300
H1501       H  0.00595961  0.28370554  0.75932708     0.39900
H1502       H  0.00416135  0.25957099  0.72746528     0.34800
C1503       C  0.26395837  0.63724682  0.51408988    -0.26900
C1504       C  0.27467242  0.59981539  0.51131231    -0.15000
C1505       C  0.25761499  0.57310988  0.52952929     0.35600
C1506       C  0.22873542  0.58402037  0.54817485    -0.26400
C1507       C  0.21607708  0.62088644  0.54923122    -0.15600
C1508       C  0.23525380  0.64814035  0.53310014     0.36700
N1509       N  0.22528085  0.68660026  0.53560634    -0.89900
H1510       H  0.27775860  0.65825291  0.50114867     0.17800
H1511       H  0.21493547  0.56294296  0.56104184     0.17800
N1512       N  0.26912265  0.53490572  0.52900685    -0.88900
H1513       H  0.24184561  0.70289812  0.52194371     0.35200
H1514       H  0.23107057  0.69505909  0.55704916     0.40300
H1515       H  0.25353092  0.52592706  0.00083467     0.39900
H1516       H  0.24486449  0.51708187  0.03610105     0.34800
C1517       C  0.99066805  0.53514284  0.01310599    -0.26900
C1518       C  0.00900083  0.53249897  0.53719119    -0.15000
C1519       C  0.01923061  0.49633026  0.54589856     0.35600
C1520       C  0.01688939  0.46617976  0.52613969    -0.26400
C1521       C  0.00398903  0.47075000  0.49733094    -0.15600
C1522       C  0.98856235  0.50548988  0.99287938     0.36700
N1523       N  0.97128471  0.51298161  0.96535791    -0.89900
H1524       H  0.98138193  0.56237341  0.00637163     0.17800
H1525       H  0.02563526  0.43903592  0.53346627     0.17800
N1526       N  0.03382964  0.49050962  0.57463207    -0.88900
H1527       H  0.94793448  0.49610475  0.96312195     0.35200
H1528       H  0.99012647  0.50745887  0.94848148     0.40300
H1529       H  0.06038506  0.47931592  0.57246019     0.39900
H1530       H  0.01715651  0.47086375  0.58509308     0.34800
C1531       C  0.13728989  0.60591472  0.95879897    -0.26900
C1532       C  0.10164238  0.59942673  0.96951323    -0.15000
C1533       C  0.07263959  0.59182022  0.94967779     0.35600
C1534       C  0.07956386  0.59242477  0.91948398    -0.26400
C1535       C  0.11504377  0.60001933  0.90851127    -0.15600
C1536       C  0.14432143  0.60645569  0.92863553     0.36700
N1537       N  0.18122604  0.61413926  0.91879793    -0.89900
H1538       H  0.15965658  0.61193846  0.97388056     0.17800
H1539       H  0.05706013  0.58660197  0.90452129     0.17800
N1540       N  0.03639243  0.58266671  0.96035388    -0.88900
H1541       H  0.19891938  0.59427619  0.92773892     0.35200
H1542       H  0.18903841  0.64012399  0.92700409     0.40300
H1543       H  0.03903759  0.55741996  0.97123778     0.39900
H1544       H  0.01808920  0.57805334  0.94302510     0.34800
C1545       C  0.10143640  0.61230575  0.71041470    -0.26900
C1546       C  0.09941777  0.57471462  0.71770962    -0.15000
C1547       C  0.09843110  0.54770652  0.69523143     0.35600
C1548       C  0.10023682  0.55870798  0.66601470    -0.26400
C1549       C  0.10433277  0.59624144  0.65852131    -0.15600
C1550       C  0.10417171  0.62350291  0.68109313     0.36700
N1551       N  0.10743958  0.66232070  0.67438901    -0.89900
H1552       H  0.10292684  0.63291693  0.72777359     0.17800
H1553       H  0.09980040  0.53748406  0.64911172     0.17800
N1554       N  0.09572729  0.50890055  0.70142134    -0.88900
H1555       H  0.10794749  0.67835541  0.69354459     0.35200
H1556       H  0.08358907  0.67001650  0.66309882     0.40300
H1557       H  0.07187298  0.50468660  0.71388645     0.39900
H1558       H  0.11867323  0.50079420  0.71365636     0.34800
C1559       C  0.99087701  0.97082633  0.77383275    -0.26900
C1560       C  0.00048570  0.97294909  0.74397122    -0.15000
C1561       C  0.01194661  0.00798559  0.73315119     0.35600
C1562       C  0.01424609  0.03916171  0.75197905    -0.26400
C1563       C  0.00475253  0.03707843  0.78183680    -0.15600
C1564       C  0.99287393  0.00216367  0.79262999     0.36700
N1565       N  0.98305745  0.99812656  0.82285248    -0.89900
H1566       H  0.98280460  0.94436205  0.78301378     0.17800
H1567       H  0.02249166  0.06556034  0.74278271     0.17800
N1568       N  0.02121520  0.01229120  0.70283632    -0.88900
H1569       H  0.00015709  0.97785689  0.83192891     0.35200
H1570       H  0.95576372  0.98855448  0.82392195     0.40300
H1571       H  0.04841430  0.02209683  0.70148422     0.39900
H1572       H  0.00376923  0.03240298  0.69399070     0.34800
C1573       C  0.01311271  0.71396519  0.65115220    -0.26900
C1574       C  0.01404373  0.72069363  0.62087051    -0.15000
C1575       C  0.00710226  0.75726357  0.61111519     0.35600
C1576       C  0.00324328  0.78657055  0.63173641    -0.26400
C1577       C  0.00743508  0.78042908  0.66189334    -0.15600
C1578       C  0.01007940  0.74338558  0.67157204     0.36700
N1579       N  0.01337667  0.73593602  0.70223702    -0.89900
H1580       H  0.01856975  0.68623467  0.65907940     0.17800
H1581       H  0.00117516  0.81480255  0.62405093     0.17800
N1582       N  0.00759759  0.76516720  0.58027946    -0.88900
H1583       H  0.03867445  0.72263862  0.70574696     0.35200
H1584       H  0.99221678  0.71758090  0.70808047     0.40300
H1585       H  0.03453722  0.76082406  0.57258272     0.39900
H1586       H  0.00167895  0.79315584  0.57664705     0.34800
C1587       C  0.14026351  0.71649877  0.77801309    -0.26900
C1588       C  0.11327134  0.70004643  0.79568376    -0.15000
C1589       C  0.07836357  0.71698080  0.79866864     0.35600
C1590       C  0.07041666  0.74912487  0.78282090    -0.26400
C1591       C  0.09664830  0.76450221  0.76361286    -0.15600
C1592       C  0.13224676  0.74817902  0.76169424     0.36700
N1593       N  0.15995868  0.76240605  0.74226418    -0.89900
H1594       H  0.16704700  0.70335319  0.77531285     0.17800
H1595       H  0.04322941  0.76148391  0.78508134     0.17800
N1596       N  0.05076783  0.70131211  0.81750760    -0.88900
H1597       H  0.16676707  0.74152157  0.72719850     0.35200
H1598       H  0.18358301  0.76825986  0.75460216     0.40300
H1599       H  0.02741433  0.69526861  0.80487610     0.39900
H1600       H  0.04334219  0.72140140  0.83304678     0.34800
C1601       C  0.75142840  0.38964885  0.76035400    -0.26900
C1602       C  0.76902206  0.42403354  0.76480177    -0.15000
C1603       C  0.75534323  0.44831732  0.78668249     0.35600
C1604       C  0.72311024  0.43865271  0.80210425    -0.26400
C1605       C  0.70456514  0.40512243  0.79654117    -0.15600
C1606       C  0.71933259  0.37992692  0.77565519     0.36700
N1607       N  0.70190810  0.34525224  0.76808948    -0.89900
H1608       H  0.76172784  0.37052204  0.74384746     0.17800
H1609       H  0.71158931  0.45797834  0.81795746     0.17800
N1610       N  0.77375222  0.48284779  0.79293102    -0.88900
H1611       H  0.69323182  0.34695216  0.74634655     0.35200
H1612       H  0.67830225  0.34006811  0.78054387     0.40300
H1613       H  0.79976731  0.47652441  0.80152728     0.39900
H1614       H  0.75960934  0.49768400  0.80920809     0.34800
C1615       C  0.57548347  0.44898716  0.70392319    -0.26900
C1616       C  0.57958060  0.41447683  0.71757162    -0.15000
C1617       C  0.59102425  0.38320491  0.70106541     0.35600
C1618       C  0.59742844  0.38699288  0.67107514    -0.26400
C1619       C  0.59273037  0.42118959  0.65736761    -0.15600
C1620       C  0.58175900  0.45257566  0.67385023     0.36700
N1621       N  0.57781036  0.48837457  0.66075911    -0.89900
H1622       H  0.56699581  0.47305330  0.71658493     0.17800
H1623       H  0.60660447  0.36324636  0.65831061     0.17800
N1624       N  0.59679016  0.34791300  0.71493215    -0.88900
H1625       H  0.55770161  0.48654342  0.64440768     0.35200
H1626       H  0.60300075  0.49559216  0.65100745     0.40300
H1627       H  0.61884377  0.35094279  0.72953458     0.39900
H1628       H  0.60480623  0.32779608  0.69959911     0.34800
C1629       C  0.59028132  0.40418418  0.92948084    -0.26900
C1630       C  0.60330613  0.42869929  0.90793801    -0.15000
C1631       C  0.61583932  0.46435864  0.91632232     0.35600
C1632       C  0.61532853  0.47439403  0.94607763    -0.26400
C1633       C  0.60290402  0.44947065  0.96747869    -0.15600
C1634       C  0.58998923  0.41420498  0.95904032     0.36700
N1635       N  0.57836475  0.38774029  0.98051983    -0.89900
H1636       H  0.58073567  0.37669852  0.92347558     0.17800
H1637       H  0.62566595  0.50139175  0.95272610     0.17800
N1638       N  0.63018980  0.48971072  0.89489231    -0.88900
H1639       H  0.59513989  0.36422470  0.97853322     0.35200
H1640       H  0.55116039  0.37987941  0.97580318     0.40300
H1641       H  0.65441462  0.47809049  0.88626472     0.39900
H1642       H  0.63785807  0.51480938  0.90475335     0.34800
C1643       C  0.50639361  0.25825905  0.85651269    -0.26900
C1644       C  0.50656073  0.29462853  0.86785684    -0.15000
C1645       C  0.50037861  0.29957778  0.89817795     0.35600
C1646       C  0.49819785  0.26847832  0.91668685    -0.26400
C1647       C  0.50291199  0.23218764  0.90570114    -0.15600
C1648       C  0.50451184  0.22710399  0.87494505     0.36700
N1649       N  0.50771490  0.19086358  0.86189315    -0.89900
H1650       H  0.51157195  0.25389185  0.83334259     0.17800
H1651       H  0.49732935  0.27298646  0.94017013     0.17800
N1652       N  0.49940120  0.33588623  0.91102939    -0.88900
H1653       H  0.48529608  0.18734760  0.84774077     0.35200
H1654       H  0.50510687  0.17016244  0.87770498     0.40300
H1655       H  0.47816228  0.35077646  0.90100010     0.39900
H1656       H  0.52440286  0.34924812  0.90645266     0.34800
C1657       C  0.63274926  0.30435028  0.02692708    -0.26900
C1658       C  0.60186981  0.32314698  0.54381138    -0.15000
C1659       C  0.56572245  0.30893352  0.54047098     0.35600
C1660       C  0.55989001  0.27663148  0.52381685    -0.26400
C1661       C  0.58945568  0.25804853  0.50997941    -0.15600
C1662       C  0.62567593  0.27194754  0.01069089     0.36700
N1663       N  0.65556670  0.25494013  0.99496602    -0.89900
H1664       H  0.66048764  0.31584119  0.02682131     0.17800
H1665       H  0.53180435  0.26658625  0.52129227     0.17800
N1666       N  0.53475388  0.32728544  0.55379645    -0.88900
H1667       H  0.67640490  0.24867261  0.00997665     0.35200
H1668       H  0.66619472  0.27432488  0.98019990     0.40300
H1669       H  0.52155845  0.30843892  0.56768704     0.39900
H1670       H  0.51616417  0.33443063  0.53725650     0.34800
C1671       C  0.25913910  0.62851119  0.74936469    -0.26900
C1672       C  0.24846420  0.59109405  0.75240464    -0.15000
C1673       C  0.26841748  0.56361896  0.73699438     0.35600
C1674       C  0.30096934  0.57338103  0.72216516    -0.26400
C1675       C  0.31363195  0.61027080  0.72184062    -0.15600
C1676       C  0.29135129  0.63844121  0.73412348     0.36700
N1677       N  0.30270696  0.67666021  0.73296803    -0.89900
H1678       H  0.24323998  0.65021356  0.76001420     0.17800
H1679       H  0.31729254  0.55168832  0.71187276     0.17800
N1680       N  0.25645220  0.52571978  0.73689266    -0.88900
H1681       H  0.28426309  0.69352109  0.74465283     0.35200
H1682       H  0.30101899  0.68503724  0.71113175     0.40300
H1683       H  0.27768855  0.50948639  0.74554531     0.39900
H1684       H  0.25236085  0.51754054  0.71512850     0.34800
C1685       C  0.52247928  0.54875194  0.77030824    -0.26900
C1686       C  0.50899987  0.54437611  0.74157481    -0.15000
C1687       C  0.49444738  0.50882606  0.73379285     0.35600
C1688       C  0.49480076  0.47939967  0.75401391    -0.26400
C1689       C  0.50871247  0.48373803  0.78256538    -0.15600
C1690       C  0.52213459  0.51933651  0.79068063     0.36700
N1691       N  0.53555565  0.52600467  0.81971886    -0.89900
H1692       H  0.53267994  0.57559070  0.77743508     0.17800
H1693       H  0.48484475  0.45246316  0.74689100     0.17800
N1694       N  0.47937461  0.50118406  0.70541393    -0.88900
H1695       H  0.51985480  0.54739182  0.82905260     0.35200
H1696       H  0.56296299  0.53512385  0.81817976     0.40300
H1697       H  0.49909616  0.50792157  0.68951875     0.39900
H1698       H  0.45555171  0.51713279  0.70249152     0.34800
C1699       C  0.46950613  0.61386361  0.82583765    -0.26900
C1700       C  0.44305128  0.60181578  0.80543961    -0.15000
C1701       C  0.40935343  0.58677904  0.81521289     0.35600
C1702       C  0.40189355  0.58578820  0.84520385    -0.26400
C1703       C  0.42750030  0.59971867  0.86560918    -0.15600
C1704       C  0.46203681  0.61293743  0.85585412     0.36700
N1705       N  0.48880803  0.62712196  0.87611498    -0.89900
H1706       H  0.49565291  0.62524497  0.81838648     0.17800
H1707       H  0.37545213  0.57497507  0.85249363     0.17800
N1708       N  0.38181185  0.57453851  0.79479929    -0.88900
H1709       H  0.49429542  0.65475595  0.87072866     0.35200
H1710       H  0.51326275  0.61200623  0.87334171     0.40300
H1711       H  0.35780110  0.59011678  0.79836228     0.39900
H1712       H  0.37568168  0.54677382  0.79926096     0.34800
C1713       C  0.42621337  0.62633296  0.59334629    -0.26900
C1714       C  0.41690046  0.60008339  0.61478586    -0.15000
C1715       C  0.40751527  0.56352596  0.60619129     0.35600
C1716       C  0.40791640  0.55414931  0.57641191    -0.26400
C1717       C  0.41722684  0.58041839  0.55513690    -0.15600
C1718       C  0.42651969  0.61692239  0.56373618     0.36700
N1719       N  0.43453467  0.64546958  0.54293314    -0.89900
H1720       H  0.43308908  0.65456374  0.59954589     0.17800
H1721       H  0.39989779  0.52642448  0.56968420     0.17800
N1722       N  0.39652664  0.53637237  0.62749125    -0.88900
H1723       H  0.41200844  0.64794485  0.52877184     0.35200
H1724       H  0.45795871  0.63784415  0.53087637     0.40300
H1725       H  0.37149542  0.54524325  0.63671700     0.39900
H1726       H  0.39120172  0.51079099  0.61745828     0.34800
C1727       C  0.51579888  0.98029373  0.50153294    -0.26900
C1728       C  0.50465015  0.98353659  0.53097836    -0.15000
C1729       C  0.49144896  0.01864553  0.54064081     0.35600
C1730       C  0.48968859  0.04897711  0.52114469    -0.26400
C1731       C  0.50089836  0.04571590  0.49168694    -0.15600
C1732       C  0.51482673  0.01110711  0.97991476     0.36700
N1733       N  0.52821368  0.00663962  0.95053844    -0.89900
H1734       H  0.52921941  0.95510279  0.99148932     0.17800
H1735       H  0.48044444  0.07560762  0.52949628     0.17800
N1736       N  0.47992594  0.02392097  0.57041127    -0.88900
H1737       H  0.51427801  0.98428003  0.94090647     0.35200
H1738       H  0.55633999  0.99997235  0.95148858     0.40300
H1739       H  0.45235526  0.03270727  0.57036107     0.39900
H1740       H  0.49598493  0.04516462  0.57954560     0.34800
C1741       C  0.51500018  0.75965810  0.60862645    -0.26900
C1742       C  0.50935308  0.79623907  0.61871699    -0.15000
C1743       C  0.50724728  0.80247928  0.64919314     0.35600
C1744       C  0.50658338  0.77198354  0.66855950    -0.26400
C1745       C  0.50782141  0.73514681  0.65814593    -0.15600
C1746       C  0.51397197  0.72907760  0.62796916     0.36700
N1747       N  0.51628077  0.69178908  0.61677000    -0.89900
H1748       H  0.51588862  0.75453984  0.58522115     0.17800
H1749       H  0.50117785  0.77686512  0.69162608     0.17800
N1750       N  0.50196625  0.83957390  0.66009365    -0.88900
H1751       H  0.52064453  0.69195683  0.59413187     0.35200
H1752       H  0.49069868  0.67895884  0.62021533     0.40300
H1753       H  0.52564250  0.85483032  0.65476300     0.39900
H1754       H  0.50007059  0.83962067  0.68294716     0.34800
C1755       C  0.44874127  0.71525844  0.98610776    -0.26900
C1756       C  0.41264533  0.70391871  0.97916891    -0.15000
C1757       C  0.38588301  0.72704137  0.48446795     0.35600
C1758       C  0.39365544  0.75870783  0.50148597    -0.26400
C1759       C  0.42992590  0.76716284  0.51051341    -0.15600
C1760       C  0.45924678  0.74445221  0.50068619     0.36700
N1761       N  0.49672371  0.75208692  0.50893216    -0.89900
H1762       H  0.47219342  0.69859382  0.97922179     0.17800
H1763       H  0.37098434  0.77646768  0.50825265     0.17800
N1764       N  0.34823377  0.71822988  0.47702860    -0.88900
H1765       H  0.51241248  0.75514424  0.48981791     0.35200
H1766       H  0.50687236  0.72914531  0.52028682     0.40300
H1767       H  0.34164198  0.71866120  0.95900564     0.39900
H1768       H  0.32998663  0.73746888  0.48636098     0.34800
C1769       C  0.37701948  0.80039675  0.77953884    -0.26900
C1770       C  0.40612529  0.81906569  0.79349227    -0.15000
C1771       C  0.44205013  0.80342361  0.79268017     0.35600
C1772       C  0.44830190  0.77090377  0.77672127    -0.26400
C1773       C  0.41971002  0.75350246  0.76099903    -0.15600
C1774       C  0.38341347  0.76801473  0.76322514     0.36700
N1775       N  0.35297470  0.75069924  0.74846547    -0.89900
H1776       H  0.34935419  0.81200635  0.77997431     0.17800
H1777       H  0.47616510  0.75984893  0.77601250     0.17800
N1778       N  0.47275275  0.81962450  0.80793018    -0.88900
H1779       H  0.34139452  0.77001362  0.73416476     0.35200
H1780       H  0.33298090  0.74388950  0.76414043     0.40300
H1781       H  0.46519588  0.82393575  0.82980127     0.39900
H1782       H  0.47962096  0.84497236  0.79836253     0.34800
C1783       C  0.39550497  0.96640391  0.69361463    -0.26900
C1784       C  0.40880511  0.94158584  0.71470180    -0.15000
C1785       C  0.42304808  0.90688655  0.70586401     0.35600
C1786       C  0.42303884  0.89757420  0.67605438    -0.26400
C1787       C  0.40956445  0.92228602  0.65491726    -0.15600
C1788       C  0.39557025  0.95710462  0.66378255     0.36700
N1789       N  0.38043386  0.98234785  0.64269347    -0.89900
H1790       H  0.38420418  0.99288409  0.70056883     0.17800
H1791       H  0.43365235  0.87077590  0.66928297     0.17800
N1792       N  0.43560388  0.88049659  0.72716011    -0.88900
H1793       H  0.37148352  0.00678632  0.65292046     0.35200
H1794       H  0.35691064  0.96983872  0.63369222     0.40300
H1795       H  0.46022340  0.89072040  0.73607287     0.39900
H1796       H  0.44231971  0.85523935  0.71710732     0.34800
C1797       C  0.41199529  0.88599232  0.91981566    -0.26900
C1798       C  0.41713293  0.91940714  0.90498367    -0.15000
C1799       C  0.42966431  0.95112641  0.92032131     0.35600
C1800       C  0.43750515  0.94856196  0.95023427    -0.26400
C1801       C  0.43377561  0.91464987  0.96485997    -0.15600
C1802       C  0.42017034  0.88318964  0.94963780     0.36700
N1803       N  0.41415695  0.84868579  0.96465293    -0.89900
H1804       H  0.40148582  0.86201421  0.90803180     0.17800
H1805       H  0.44713964  0.97291309  0.96195276     0.17800
N1806       N  0.43381992  0.98628564  0.90619944    -0.88900
H1807       H  0.40440150  0.82828489  0.95022917     0.35200
H1808       H  0.39325003  0.85304565  0.98016914     0.40300
H1809       H  0.40836937  0.99364659  0.89708509     0.39900
H1810       H  0.45314869  0.98340953  0.88926992     0.34800
C1811       C  0.20690454  0.94614532  0.73490147    -0.26900
C1812       C  0.19667368  0.90908485  0.72988724    -0.15000
C1813       C  0.22029034  0.88055986  0.73941066     0.35600
C1814       C  0.25242868  0.88952667  0.75509721    -0.26400
C1815       C  0.26158957  0.92662651  0.76166512    -0.15600
C1816       C  0.23902171  0.95534397  0.75046023     0.36700
N1817       N  0.24790809  0.99375290  0.75553589    -0.89900
H1818       H  0.18912484  0.96824433  0.72726135     0.17800
H1819       H  0.26965049  0.86709915  0.76293484     0.17800
N1820       N  0.21080760  0.84240748  0.73476096    -0.88900
H1821       H  0.22703186  0.01104350  0.74761834     0.35200
H1822       H  0.27158141  0.99978808  0.74323274     0.40300
H1823       H  0.20896172  0.82974222  0.75524824     0.39900
H1824       H  0.23241483  0.82980559  0.72313827     0.34800
C1825       C  0.06604167  0.76645925  0.99884564    -0.26900
C1826       C  0.09778948  0.74870059  0.51222956    -0.15000
C1827       C  0.13389990  0.76244766  0.50724927     0.35600
C1828       C  0.13905564  0.79369354  0.48963346    -0.26400
C1829       C  0.10680062  0.81489541  0.98054930    -0.15600
C1830       C  0.07110595  0.79932785  0.98307027     0.36700
N1831       N  0.03990668  0.81702183  0.96985316    -0.89900
H1832       H  0.03831153  0.75547388  0.00150298     0.17800
H1833       H  0.16664507  0.80509714  0.48716001     0.17800
N1834       N  0.16543754  0.74488172  0.52001969    -0.88900
H1835       H  0.02060536  0.82297457  0.98631737     0.35200
H1836       H  0.02779837  0.79816299  0.95525910     0.40300
H1837       H  0.17925594  0.76448827  0.53295518     0.39900
H1838       H  0.18321253  0.73691203  0.50301379     0.34800
C1839       C  0.29388891  0.00989658  0.89741192    -0.26900
C1840       C  0.28692873  0.01078547  0.86720712    -0.15000
C1841       C  0.24980883  0.01359183  0.85783425     0.35600
C1842       C  0.22046741  0.01191689  0.87832249    -0.26400
C1843       C  0.22741400  0.00688551  0.90826761    -0.15600
C1844       C  0.26475244  0.00746466  0.91784526     0.36700
N1845       N  0.27399009  0.00213830  0.94801459    -0.89900
H1846       H  0.32207795  0.00650982  0.90500420     0.17800
H1847       H  0.19224890  0.01057101  0.87040979     0.17800
N1848       N  0.24173968  0.01414255  0.82715331    -0.88900
H1849       H  0.26452485  0.97603227  0.95447429     0.35200
H1850       H  0.26029995  0.02235367  0.96045059     0.40300
H1851       H  0.22596126  0.03779959  0.82292679     0.39900
H1852       H  0.22559294  0.99086666  0.82215396     0.34800
C1853       C  0.26298040  0.94279530  0.52848563    -0.26900
C1854       C  0.24811574  0.91479519  0.51050626    -0.15000
C1855       C  0.26437893  0.87893530  0.51075460     0.35600
C1856       C  0.29653986  0.87305442  0.52727549    -0.26400
C1857       C  0.31260580  0.90204144  0.54332809    -0.15600
C1858       C  0.29503263  0.93678639  0.54467189     0.36700
N1859       N  0.31019701  0.96636166  0.56200106    -0.89900
H1860       H  0.25043455  0.97007665  0.52938359     0.17800
H1861       H  0.31027255  0.84634537  0.52630277     0.17800
N1862       N  0.23756083  0.85529936  0.01104933    -0.88900
H1863       H  0.29009381  0.97477264  0.57714875     0.35200
H1864       H  0.31572729  0.98872454  0.54815693     0.40300
H1865       H  0.21235313  0.85643066  0.02232991     0.39900
H1866       H  0.26605603  0.82545756  0.49482505     0.34800
C1867       C  0.08451553  0.90413872  0.56740753    -0.26900
C1868       C  0.10211110  0.93740278  0.55983425    -0.15000
C1869       C  0.11496019  0.96147314  0.58229876     0.35600
C1870       C  0.11029652  0.95152822  0.61151214    -0.26400
C1871       C  0.09455507  0.91737725  0.61900125    -0.15600
C1872       C  0.08081732  0.89370604  0.59677516     0.36700
N1873       N  0.06300283  0.85932004  0.60412573    -0.89900
H1874       H  0.07468106  0.88563110  0.55031857     0.17800
H1875       H  0.12068292  0.96993521  0.62846154     0.17800
N1876       N  0.13307183  0.99602288  0.57635623    -0.88900
H1877       H  0.05477465  0.84504918  0.58523477     0.35200
H1878       H  0.03886144  0.86606207  0.61562109     0.40300
H1879       H  0.11630177  0.01183107  0.56270129     0.39900
H1880       H  0.15834182  0.99084147  0.56596158     0.34800
C1881       C  0.11724182  0.92505535  0.84780870    -0.26900
C1882       C  0.09110459  0.91552678  0.86939168    -0.15000
C1883       C  0.05442426  0.90692994  0.86096885     0.35600
C1884       C  0.04531472  0.90673162  0.83113578    -0.26400
C1885       C  0.07188405  0.91504045  0.80972476    -0.15600
C1886       C  0.10804211  0.92493982  0.81807214     0.36700
N1887       N  0.13587451  0.93252720  0.79631166    -0.89900
H1888       H  0.14521840  0.93237451  0.85409360     0.17800
H1889       H  0.01761712  0.89892165  0.82442055     0.17800
N1890       N  0.02687349  0.89738781  0.88244656    -0.88900
H1891       H  0.16167500  0.93677899  0.80609590     0.35200
H1892       H  0.12893497  0.95754793  0.78627115     0.40300
H1893       H  0.03473868  0.87220745  0.89182644     0.39900
H1894       H  0.00123492  0.89275171  0.87251008     0.34800
C1895       C  0.62967342  0.25491653  0.76420808    -0.26900
C1896       C  0.59353578  0.26943599  0.76530780    -0.15000
C1897       C  0.56585441  0.25259938  0.74790217     0.35600
C1898       C  0.57432058  0.22104138  0.73112983    -0.26400
C1899       C  0.60999780  0.20573758  0.73101949    -0.15600
C1900       C  0.63806033  0.22333211  0.74753361     0.36700
N1901       N  0.67475873  0.20863574  0.74920003    -0.89900
H1902       H  0.65152962  0.26740845  0.77713881     0.17800
H1903       H  0.55245211  0.20773813  0.71869702     0.17800
N1904       N  0.52892299  0.26696209  0.74735223    -0.88900
H1905       H  0.68620310  0.20836243  0.72820045     0.35200
H1906       H  0.67323653  0.18139846  0.75698813     0.40300
H1907       H  0.51088051  0.24599969  0.75420989     0.39900
H1908       H  0.52246165  0.27356551  0.72570497     0.34800
C1909       C  0.46938712  0.01924864  0.74749285    -0.26900
C1910       C  0.47282959  0.01428557  0.77796524    -0.15000
C1911       C  0.50861136  0.00679158  0.78919935     0.35600
C1912       C  0.53939221  0.00416419  0.77006366    -0.26400
C1913       C  0.53606091  0.00966343  0.73969017    -0.15600
C1914       C  0.50025804  0.01670956  0.72835326     0.36700
N1915       N  0.49524587  0.02111779  0.69734401    -0.89900
H1916       H  0.44218958  0.02394398  0.73833628     0.17800
H1917       H  0.56657469  0.99945498  0.77924618     0.17800
N1918       N  0.51379488  0.00224553  0.82017599    -0.88900
H1919       H  0.46743653  0.02610490  0.69248194     0.35200
H1920       H  0.50208935  0.99588110  0.68730855     0.40300
H1921       H  0.50747802  0.02758501  0.83026203     0.39900
H1922       H  0.54153483  0.99673976  0.82492786     0.34800
C1923       C  0.57987666  0.12183327  0.84543441    -0.26900
C1924       C  0.59544860  0.09823993  0.86630939    -0.15000
C1925       C  0.61273793  0.06504881  0.85729641     0.35600
C1926       C  0.61437598  0.05643178  0.82734684    -0.26400
C1927       C  0.59933590  0.08044517  0.80637063    -0.15600
C1928       C  0.58144924  0.11335152  0.81570206     0.36700
N1929       N  0.56629360  0.13966968  0.79563917    -0.89900
H1930       H  0.56675968  0.14744441  0.85228093     0.17800
H1931       H  0.62822737  0.03125380  0.82027976     0.17800
N1932       N  0.62970568  0.04101451  0.87838833    -0.88900
H1933       H  0.54495002  0.12703189  0.78383536     0.35200
H1934       H  0.58717888  0.14817968  0.78129387     0.40300
H1935       H  0.65165856  0.05558299  0.88794252     0.39900
H1936       H  0.64126196  0.01778371  0.86804745     0.34800
C1937       C  0.54738649  0.12211092  0.57821599    -0.26900
C1938       C  0.57170079  0.10812233  0.55679672    -0.15000
C1939       C  0.60595351  0.09287291  0.56547473     0.35600
C1940       C  0.61553159  0.09315393  0.59497351    -0.26400
C1941       C  0.59153482  0.10758032  0.61636307    -0.15600
C1942       C  0.55687973  0.12194077  0.60797809     0.36700
N1943       N  0.53198370  0.13723859  0.62948296    -0.89900
H1944       H  0.52116588  0.13394138  0.57160601     0.17800
H1945       H  0.64215085  0.08206499  0.60123995     0.17800
N1946       N  0.63232690  0.07841893  0.54490608    -0.88900
H1947       H  0.50756485  0.14631054  0.61961801     0.35200
H1948       H  0.54465286  0.16075368  0.63849944     0.40300
H1949       H  0.63899880  0.09924696  0.52997404     0.39900
H1950       H  0.62049998  0.05593209  0.53381501     0.34800
C1951       C  0.76466292  0.07039698  0.77561570    -0.26900
C1952       C  0.74966468  0.09827539  0.75784270    -0.15000
C1953       C  0.76613301  0.13397063  0.75813910     0.35600
C1954       C  0.79686755  0.14088317  0.77582238    -0.26400
C1955       C  0.81268277  0.11261762  0.79241621    -0.15600
C1956       C  0.79614281  0.07710887  0.79275171     0.36700
N1957       N  0.81187295  0.04783806  0.80998895    -0.89900
H1958       H  0.75223035  0.04303511  0.77582192     0.17800
H1959       H  0.80995733  0.16794672  0.77491728     0.17800
N1960       N  0.75303199  0.16302962  0.73960677    -0.88900
H1961       H  0.79671502  0.02328612  0.80747390     0.35200
H1962       H  0.80958990  0.05563138  0.83199584     0.40300
H1963       H  0.77460225  0.17068382  0.72555800     0.39900
H1964       H  0.74678242  0.18594317  0.75284520     0.34800
C1965       C  0.86189917  0.22371019  0.03032163    -0.26900
C1966       C  0.88377481  0.21179739  0.55124248    -0.15000
C1967       C  0.91643446  0.23239970  0.55610763     0.35600
C1968       C  0.92618757  0.26076934  0.53683995    -0.26400
C1969       C  0.90375775  0.26936174  0.51282921    -0.15600
C1970       C  0.87138797  0.25200852  0.01069495     0.36700
N1971       N  0.84542309  0.26289917  0.98854605    -0.89900
H1972       H  0.83547929  0.20977334  0.02795600     0.17800
H1973       H  0.95177254  0.27580071  0.54052218     0.17800
N1974       N  0.94021993  0.22407925  0.58025490    -0.88900
H1975       H  0.82026678  0.24889131  0.99109104     0.35200
H1976       H  0.85617833  0.25454988  0.96828561     0.40300
H1977       H  0.94283395  0.24802983  0.59312046     0.39900
H1978       H  0.96638324  0.21742702  0.57192066     0.34800
C1979       C  0.97233345  0.99501681  0.00177178    -0.26900
C1980       C  0.97690887  0.00548488  0.53570759    -0.15000
C1981       C  0.01238435  0.01795562  0.54511768     0.35600
C1982       C  0.04257556  0.01805311  0.52547899    -0.26400
C1983       C  0.03957330  0.00390378  0.49685546    -0.15600
C1984       C  0.00311234  0.99596197  0.98245802     0.36700
N1985       N  0.99845256  0.98512435  0.95235414    -0.89900
H1986       H  0.94515390  0.98863025  0.99313215     0.17800
H1987       H  0.06863167  0.02955414  0.53274993     0.17800
N1988       N  0.01798365  0.03317564  0.57397015    -0.88900
H1989       H  0.00287169  0.00875567  0.93951745     0.35200
H1990       H  0.97139228  0.97640292  0.94845830     0.40300
H1991       H  0.03834166  0.01722135  0.58413096     0.39900
H1992       H  0.99420034  0.03008145  0.58681274     0.34800
C1993       C  0.75133015  0.00466997  0.60609693    -0.26900
C1994       C  0.78734227  0.00780067  0.61753603    -0.15000
C1995       C  0.79154154  0.00704905  0.64818814     0.35600
C1996       C  0.76015474  0.00769399  0.66662996    -0.26400
C1997       C  0.72419756  0.01037900  0.65510959    -0.15600
C1998       C  0.71978053  0.00681216  0.62438422     0.36700
N1999       N  0.68396686  0.00801033  0.61084243    -0.89900
H2000       H  0.74746782  0.00576985  0.58257898     0.17800
H2001       H  0.76419990  0.01077096  0.69003737     0.17800
N2002       N  0.82776995  0.00948498  0.66065922    -0.88900
H2003       H  0.68293619  0.03187323  0.59799309     0.35200
H2004       H  0.66287861  0.01012000  0.62645903     0.40300
H2005       H  0.83147221  0.98649129  0.67418308     0.39900
H2006       H  0.82876208  0.03324066  0.67386510     0.34800
C2007       C  0.74393522  0.12960756  0.51424762    -0.26900
C2008       C  0.75806935  0.09327874  0.51381818    -0.15000
C2009       C  0.73430272  0.06480433  0.00264192     0.35600
C2010       C  0.70261280  0.07306569  0.98631098    -0.26400
C2011       C  0.69196347  0.11001046  0.98098111    -0.15600
C2012       C  0.71250343  0.13906666  0.49832147     0.36700
N2013       N  0.69771551  0.17560535  0.50213358    -0.89900
H2014       H  0.75686365  0.15082064  0.52769121     0.17800
H2015       H  0.68550932  0.05028537  0.97866883     0.17800
N2016       N  0.74266830  0.02700454  0.00951052    -0.88900
H2017       H  0.67059184  0.17338014  0.51000105     0.35200
H2018       H  0.69749589  0.18883809  0.48184680     0.40300
H2019       H  0.74561325  0.01229870  0.98984914     0.39900
H2020       H  0.72010101  0.01587459  0.02087077     0.34800
C2021       C  0.92091282  0.07168545  0.94904094    -0.26900
C2022       C  0.90709445  0.10009324  0.96712136    -0.15000
C2023       C  0.89589217  0.13389673  0.95492306     0.35600
C2024       C  0.89815827  0.13843293  0.92454757    -0.26400
C2025       C  0.91133978  0.10978163  0.90609526    -0.15600
C2026       C  0.92370842  0.07629236  0.91866285     0.36700
N2027       N  0.93914513  0.04720479  0.90075668    -0.89900
H2028       H  0.92965837  0.04577905  0.95875780     0.17800
H2029       H  0.88880368  0.16436526  0.91527172     0.17800
N2030       N  0.88115024  0.16294578  0.97325658    -0.88900
H2031       H  0.94513264  0.02387132  0.91332565     0.35200
H2032       H  0.96440926  0.05682668  0.89248671     0.40300
H2033       H  0.85637435  0.15327434  0.98240375     0.39900
H2034       H  0.87436365  0.18614901  0.96079069     0.34800
C2035       C  0.89071107  0.09395891  0.67686973    -0.26900
C2036       C  0.91812955  0.09968218  0.65543969    -0.15000
C2037       C  0.95549640  0.10336885  0.66409119     0.35600
C2038       C  0.96411438  0.10317195  0.69404093    -0.26400
C2039       C  0.93647633  0.09836905  0.71530041    -0.15600
C2040       C  0.89956777  0.09322897  0.70663992     0.36700
N2041       N  0.87071177  0.08979895  0.72805959    -0.89900
H2042       H  0.86196862  0.09113733  0.67056067     0.17800
H2043       H  0.99244574  0.10768558  0.70094031     0.17800
N2044       N  0.98422815  0.10938408  0.64278222    -0.88900
H2045       H  0.85671987  0.06485388  0.72417255     0.35200
H2046       H  0.85196651  0.11152638  0.72503499     0.40300
H2047       H  0.98791967  0.08449348  0.63129008     0.39900
H2048       H  0.00946030  0.11482758  0.65311243     0.34800
loop_ 
_geom_bond_atom_site_label_1 
_geom_bond_atom_site_label_2 
_geom_bond_distance 
_geom_bond_site_symmetry_2 
_ccdc_geom_bond_type 
Fe1          O17   2.034       .  S
Fe1           O7   1.995       .  S
Fe1          O14   2.037       .  S
Fe1        O1030   2.067       .  S
Fe1          O12   1.948       .  S
Fe2           O5   2.046       .  S
Fe2           O9   2.098       .  S
Fe2          O13   2.067       .  S
Fe2          O18   2.047       .  S
Fe2          O12   1.939       .  S
Fe3          O21   2.133       .  S
Fe3           O8   2.077       .  S
Fe3          O15   2.126       .  S
Fe3        O1028   2.075       .  S
Fe3          O12   1.956       .  S
O4        Fe1027   2.079       .  S
O4           C11   1.281       .  A
O5           C19   1.270       .  A
O6        Fe1025   2.075       .  S
O6           C11   1.284       .  A
O7           C10   1.249       .  A
O8           C20   1.270       .  A
O9           C22   1.284       .  A
C10          O15   1.281       .  A
C10         C956   1.490       .  S
C11         C998   1.475       .  S
O13          C16   1.256       .  A
O14          C16   1.248       .  A
C16         C942   1.474       .  S
O17          C22   1.274       .  A
O18          C20   1.265       .  A
C19          O21   1.289       .  A
C19         C970   1.491       .  S
C20         C984   1.477       .  S
C22        C1012   1.470       .  S
Fe23         O39   2.064       .  S
Fe23         O29   2.016       .  S
Fe23         O36   2.032       .  S
Fe23         O28   2.097       .  S
Fe23         O34   1.946       .  S
Fe24         O27   2.095       .  S
Fe24         O31   2.053       .  S
Fe24         O35   2.089       .  S
Fe24         O40   2.055       .  S
Fe24         O34   1.938       .  S
Fe25         O43   2.104       .  S
Fe25         O30   2.075       .  S
Fe25         O37   2.126       .  S
Fe25         O26   2.047       .  S
Fe25         O34   1.975       .  S
O26          C33   1.275       .  A
O27          C41   1.279       .  A
O28          C33   1.281       .  A
O29          C32   1.249       .  A
O30          C42   1.270       .  A
O31          C44   1.271       .  A
C32          O37   1.269       .  A
C32         C889   1.507       .  S
C33         C903   1.479       .  S
O35          C38   1.272       .  A
O36          C38   1.263       .  A
C38         C875   1.489       .  S
O39          C44   1.271       .  A
O40          C42   1.265       .  A
C41          O43   1.286       .  A
C41         C973   1.495       .  S
C42         C928   1.484       .  S
C44         C917   1.479       .  S
Fe45         O61   2.020       .  S
Fe45         O58   2.067       .  S
Fe45         O50   2.007       .  S
Fe45       O1075   2.102       .  S
Fe45         O56   1.944       .  S
Fe46         O49   2.036       .  S
Fe46         O53   2.076       .  S
Fe46         O57   2.045       .  S
Fe46         O62   2.088       .  S
Fe46         O56   1.937       .  S
Fe47         O65   2.071       .  S
Fe47         O59   2.035   1_556  S
Fe47         O48   2.131   1_565  S
Fe47       O1076   2.103   1_565  S
Fe47       O1080   1.976       .  S
O48        C1079   1.270       .  A
O49        C1087   1.262       .  A
O50          C55   1.247   1_565  A
O51       Fe1069   2.104   1_554  S
O51          C54   1.283       .  A
O52       Fe1071   2.106   1_545  S
O52          C64   1.286   1_545  A
O53          C66   1.269       .  A
C54          O59   1.269       .  A
C54         C844   1.476       .  S
C55        O1072   1.273       .  A
C55        C1983   1.514       .  S
O56       Fe1071   1.975       .  S
O57          C60   1.271       .  A
O58          C60   1.273       .  A
C60         C858   1.474       .  S
O61          C66   1.260       .  A
O62          C64   1.277       .  A
C63          O65   1.271       .  A
C63        O1073   1.264       .  A
C63         C830   1.480   1_556  S
C64         C819   1.495   1_565  S
C66         C805   1.468       .  S
Fe67         O83   2.037       .  S
Fe67         O73   2.100       .  S
Fe67         O80   2.063       .  S
Fe67         O72   2.017       .  S
Fe67         O78   1.948       .  S
Fe68         O71   2.052       .  S
Fe68         O75   2.074       .  S
Fe68         O79   2.057       .  S
Fe68         O84   2.080       .  S
Fe68         O78   1.939       .  S
Fe69         O87   2.086       .  S
Fe69         O74   2.109   1_565  S
Fe69         O81   2.051       .  S
Fe69         O70   2.128   1_565  S
Fe69         O78   1.978       .  S
O70          C77   1.269       .  A
O71          C85   1.264       .  A
O72          C77   1.248   1_565  A
O73          C76   1.284       .  A
O74          C86   1.289   1_545  A
O75          C88   1.269       .  A
C76          O81   1.277       .  A
C76         C760   1.476       .  S
C77         C886   1.508       .  S
O79          C82   1.270       .  A
O80          C82   1.271       .  A
C82         C774   1.461       .  S
O83          C88   1.262       .  A
O84          C86   1.277       .  A
C85          O87   1.268       .  A
C85         C791   1.494       .  S
C86         C816   1.491   1_565  S
C88         C746   1.475       .  S
Fe89        O105   2.070       .  S
Fe89         O95   2.010       .  S
Fe89        O102   2.024       .  S
Fe89       O1118   2.110       .  S
Fe89        O100   1.944       .  S
Fe90         O93   2.077       .  S
Fe90         O97   2.063       .  S
Fe90        O101   2.071       .  S
Fe90        O106   2.068       .  S
Fe90        O100   1.932       .  S
Fe91        O109   2.104       .  S
Fe91         O96   2.070       .  S
Fe91        O103   2.131       .  S
Fe91       O1116   2.035       .  S
Fe91        O100   1.972       .  S
O92       Fe1115   2.033       .  S
O92          C99   1.273       .  A
O93         C107   1.277       .  A
O94       Fe1113   2.107       .  S
O94          C99   1.284       .  A
O95          C98   1.246       .  A
O96         C108   1.267       .  A
O97         C110   1.274       .  A
C98         O103   1.268       .  A
C98         C704   1.509       .  S
C99         C777   1.473       .  S
O101        C104   1.269       .  A
O102        C104   1.261       .  A
C104        C833   1.473       .  S
O105        C110   1.273       .  A
O106        C108   1.268       .  A
C107        O109   1.289       .  A
C107        C718   1.488       .  S
C108        C735   1.489       .  S
C110        C763   1.479       .  S
Fe111       O127   2.056       .  S
Fe111       O117   2.011       .  S
Fe111       O124   2.030       .  S
Fe111       O116   2.085       .  S
Fe111       O122   1.942       .  S
Fe112       O115   2.082       .  S
Fe112       O119   2.052       .  S
Fe112       O123   2.073       .  S
Fe112       O128   2.048       .  S
Fe112       O122   1.934       .  S
Fe113       O131   2.106       .  S
Fe113       O118   2.085       .  S
Fe113       O125   2.139       .  S
Fe113       O114   2.038       .  S
Fe113       O122   1.978       .  S
O114        C121   1.274       .  A
O115        C129   1.277       .  A
O116        C121   1.279       .  A
O117        C120   1.246       .  A
O118        C130   1.272       .  A
O119        C132   1.272       .  A
C120        O125   1.270       .  A
C120        C662   1.519       .  S
C121        C676   1.456       .  S
O123        C126   1.268       .  A
O124        C126   1.262       .  A
C126        C651   1.485       .  S
O127        C132   1.270       .  A
O128        C130   1.263       .  A
C129        O131   1.287       .  A
C129        C721   1.490       .  S
C130        C749   1.486       .  S
C132        C690   1.482       .  S
Fe133       O149   2.027       .  S
Fe133       O146   2.063       .  S
Fe133       O138   2.014       .  S
Fe133      O1163   2.095       .  S
Fe133       O144   1.953       .  S
Fe134       O137   2.057       .  S
Fe134       O141   2.083       .  S
Fe134       O145   2.061       .  S
Fe134       O150   2.091       .  S
Fe134       O144   1.935       .  S
Fe135       O153   2.094       .  S
Fe135       O147   2.043   1_556  S
Fe135       O136   2.132       .  S
Fe135      O1164   2.101       .  S
Fe135      O1168   1.983       .  S
O136       C1167   1.270       .  A
O137       C1175   1.265       .  A
O138        C143   1.249       .  A
O139      Fe1157   2.092   1_554  S
O139        C142   1.279       .  A
O140      Fe1159   2.108       .  S
O140        C152   1.288       .  A
O141        C154   1.271       .  A
C142        O147   1.274       .  A
C142        C914   1.465       .  S
C143       O1160   1.270       .  A
C143       C1731   1.513       .  S
O144      Fe1159   1.977       .  S
O145        C148   1.272       .  A
O146        C148   1.271       .  A
C148        C900   1.471       .  S
O149        C154   1.260       .  A
O150        C152   1.279       .  A
C151        O153   1.273       .  A
C151       O1161   1.263       .  A
C151        C637   1.493   1_556  S
C152        C623   1.496       .  S
C154        C987   1.475       .  S
Fe155       O171   2.039       .  S
Fe155       O161   2.100       .  S
Fe155       O168   2.076       .  S
Fe155       O160   2.021       .  S
Fe155       O166   1.950       .  S
Fe156       O159   2.054       .  S
Fe156       O163   2.073       .  S
Fe156       O167   2.059       .  S
Fe156       O172   2.074       .  S
Fe156       O166   1.941       .  S
Fe157       O175   2.085       .  S
Fe157       O162   2.111       .  S
Fe157       O169   2.033       .  S
Fe157       O158   2.133       .  S
Fe157       O166   1.973       .  S
O158        C165   1.274       .  A
O159        C173   1.266       .  A
O160        C165   1.252       .  A
O161        C164   1.281       .  A
O162        C174   1.288       .  A
O163        C176   1.267       .  A
C164        O169   1.272       .  A
C164        C592   1.464       .  S
C165        C665   1.514       .  S
O167        C170   1.273       .  A
O168        C170   1.275       .  A
C170        C606   1.489       .  S
O171        C176   1.262       .  A
O172        C174   1.274       .  A
C173        O175   1.271       .  A
C173        C872   1.488       .  S
C174        C620   1.492       .  S
C176        C581   1.469       .  S
Fe177       O193   2.065       .  S
Fe177       O183   2.013       .  S
Fe177       O190   2.030       .  S
Fe177       O182   2.093       .  S
Fe177       O188   1.945       .  S
Fe178       O181   2.091       .  S
Fe178       O185   2.048       .  S
Fe178       O189   2.093       .  S
Fe178       O194   2.036       .  S
Fe178       O188   1.931       .  S
Fe179       O197   2.103       .  S
Fe179       O184   2.092       .  S
Fe179       O191   2.143   1_455  S
Fe179       O180   2.034       .  S
Fe179       O188   1.975       .  S
O180        C187   1.271       .  A
O181        C195   1.278       .  A
O182        C187   1.279       .  A
O183        C186   1.248       .  A
O184        C196   1.274       .  A
O185        C198   1.269       .  A
C186        O191   1.273   1_455  A
C186        C536   1.512   1_455  S
C187        C861   1.463       .  S
O189        C192   1.274       .  A
O190        C192   1.262       .  A
C192        C788   1.481       .  S
O193        C198   1.271       .  A
O194        C196   1.262       .  A
C195        O197   1.286       .  A
C195        C553   1.492       .  S
C196        C567   1.482       .  S
C198        C847   1.468       .  S
Fe199       O215   2.039       .  S
Fe199       O205   2.007       .  S
Fe199       O212   2.041       .  S
Fe199      O1228   2.074       .  S
Fe199       O210   1.944       .  S
Fe200       O203   2.059       .  S
Fe200       O207   2.094       .  S
Fe200       O211   2.081       .  S
Fe200       O216   2.036       .  S
Fe200       O210   1.942       .  S
Fe201       O219   2.130       .  S
Fe201       O206   2.075       .  S
Fe201       O213   2.121       .  S
Fe201      O1226   2.079       .  S
Fe201       O210   1.951       .  S
O202      Fe1225   2.080       .  S
O202        C209   1.282       .  A
O203        C217   1.273       .  A
O204      Fe1223   2.082       .  S
O204        C209   1.286       .  A
O205        C208   1.252       .  A
O206        C218   1.270       .  A
O207        C220   1.282       .  A
C208        O213   1.280       .  A
C208        C494   1.493       .  S
C209        C508   1.477       .  S
O211        C214   1.257       .  A
O212        C214   1.250       .  A
C214        C483   1.486       .  S
O215        C220   1.276       .  A
O216        C218   1.263       .  A
C217        O219   1.288       .  A
C217        C550   1.493       .  S
C218        C802   1.477       .  S
C220        C525   1.475       .  S
Fe221       O237   2.024       .  S
Fe221       O227   2.099       .  S
Fe221       O234   2.076       .  S
Fe221       O226   2.015       .  S
Fe221       O232   1.942       .  S
Fe222       O225   2.049       .  S
Fe222       O229   2.075       .  S
Fe222       O233   2.052       .  S
Fe222       O238   2.077       .  S
Fe222       O232   1.933       .  S
Fe223       O241   2.085       .  S
Fe223       O228   2.106   1_655  S
Fe223       O235   2.041       .  S
Fe223       O224   2.127   1_655  S
Fe223       O232   1.974       .  S
O224        C231   1.268       .  A
O225        C239   1.264       .  A
O226        C231   1.249   1_655  A
O227        C230   1.284       .  A
O228        C240   1.288   1_455  A
O229        C242   1.269       .  A
C230        O235   1.277       .  A
C230       C1015   1.463       .  S
C231        C539   1.513       .  S
O233        C236   1.271       .  A
O234        C236   1.275       .  A
C236       C1001   1.491       .  S
O237        C242   1.259       .  A
O238        C240   1.277       .  A
C239        O241   1.268       .  A
C239        C466   1.488       .  S
C240        C455   1.485   1_655  S
C242        C931   1.484       .  S
Fe243       O259   2.028       .  S
Fe243       O256   2.057       .  S
Fe243       O248   2.010       .  S
Fe243      O1273   2.090       .  S
Fe243       O254   1.941       .  S
Fe244       O247   2.030       .  S
Fe244       O251   2.075       .  S
Fe244       O255   2.042       .  S
Fe244       O260   2.088       .  S
Fe244       O254   1.932       .  S
Fe245       O263   2.084       .  S
Fe245       O257   2.044   1_556  S
Fe245      O1274   2.107   1_655  S
Fe245      O1270   2.133   1_655  S
Fe245      O1278   1.979       .  S
O246      Fe1269   2.134   1_455  S
O246        C253   1.272       .  A
O247       C1285   1.260       .  A
O248        C253   1.247   1_655  A
O249      Fe1267   2.089   1_554  S
O249        C252   1.279       .  A
O250      Fe1269   2.094       .  S
O250        C262   1.282       .  A
O251        C264   1.269       .  A
C252        O257   1.273       .  A
C252        C424   1.469       .  S
C253       C1521   1.514       .  S
O254      Fe1269   1.970       .  S
O255        C258   1.270       .  A
O256        C258   1.270       .  A
C258        C441   1.474       .  S
O259        C264   1.261       .  A
O260        C262   1.277       .  A
C261        O263   1.272       .  A
C261       O1271   1.260       .  A
C261        C945   1.479   1_556  S
C262        C452   1.488   1_655  S
C264        C410   1.469       .  S
Fe265       O281   2.063       .  S
Fe265       O271   2.015       .  S
Fe265       O278   2.037       .  S
Fe265       O270   2.084       .  S
Fe265       O276   1.950       .  S
Fe266       O269   2.072       .  S
Fe266       O273   2.046       .  S
Fe266       O277   2.069       .  S
Fe266       O282   2.042       .  S
Fe266       O276   1.935       .  S
Fe267       O285   2.117       .  S
Fe267       O272   2.092       .  S
Fe267       O279   2.146       .  S
Fe267       O268   2.032       .  S
Fe267       O276   1.982       .  S
O268        C275   1.271       .  A
O269        C283   1.273       .  A
O270        C275   1.277       .  A
O271        C274   1.251       .  A
O272        C284   1.274       .  A
O273        C286   1.270       .  A
C274        O279   1.273       .  A
C274        C382   1.519       .  S
C275        C438   1.455       .  S
O277        C280   1.267       .  A
O278        C280   1.262       .  A
C280        C469   1.482       .  S
O281        C286   1.272       .  A
O282        C284   1.265       .  A
C283        O285   1.288       .  A
C283        C396   1.494       .  S
C284        C578   1.481       .  S
C286        C427   1.464       .  S
Fe287       O303   2.062       .  S
Fe287       O293   2.009       .  S
Fe287       O300   2.042       .  S
Fe287      O1316   2.096       .  S
Fe287       O298   1.946       .  S
Fe288       O291   2.090       .  S
Fe288       O295   2.047       .  S
Fe288       O299   2.079       .  S
Fe288       O304   2.037       .  S
Fe288       O298   1.934       .  S
Fe289       O307   2.106       .  S
Fe289       O294   2.085       .  S
Fe289       O301   2.127       .  S
Fe289      O1314   2.042       .  S
Fe289       O298   1.985       .  S
O290      Fe1313   2.051       .  S
O290        C297   1.276       .  A
O291        C305   1.279       .  A
O292      Fe1311   2.105       .  S
O292        C297   1.284       .  A
O293        C296   1.247       .  A
O294        C306   1.269       .  A
O295        C308   1.269       .  A
C296        O301   1.267       .  A
C296        C368   1.513       .  S
C297        C609   1.471       .  S
O299        C302   1.270       .  A
O300        C302   1.262       .  A
C302        C634   1.481       .  S
O303        C308   1.271       .  A
O304        C306   1.261       .  A
C305        O307   1.287       .  A
C305        C399   1.493       .  S
C306        C413   1.485       .  S
C308        C595   1.459       .  S
Fe309       O325   2.024       .  S
Fe309       O315   2.108       .  S
Fe309       O322   2.083       .  S
Fe309       O314   2.012       .  S
Fe309       O320   1.944       .  S
Fe310       O313   2.033       .  S
Fe310       O317   2.074       .  S
Fe310       O321   2.044       .  S
Fe310       O326   2.087       .  S
Fe310       O320   1.933       .  S
Fe311       O329   2.091       .  S
Fe311       O316   2.105       .  S
Fe311       O323   2.034       .  S
Fe311       O312   2.133       .  S
Fe311       O320   1.973       .  S
O312        C319   1.270       .  A
O313        C327   1.260       .  A
O314        C319   1.250       .  A
O315        C318   1.286       .  A
O316        C328   1.288       .  A
O317        C330   1.267       .  A
C318        O323   1.274       .  A
C318        C522   1.463       .  S
C319        C385   1.518       .  S
O321        C324   1.268       .  A
O322        C324   1.280       .  A
C324        C511   1.489       .  S
O325        C330   1.258       .  A
O326        C328   1.278       .  A
C327        O329   1.270       .  A
C327        C648   1.480       .  S
C328        C354   1.492       .  S
C330        C564   1.471       .  S
Fe331       O347   2.031       .  S
Fe331       O344   2.056       .  S
Fe331       O336   2.013       .  S
Fe331      O1361   2.090       .  S
Fe331       O342   1.945       .  S
Fe332       O335   2.046       .  S
Fe332       O339   2.078       .  S
Fe332       O343   2.048       .  S
Fe332       O348   2.088       .  S
Fe332       O342   1.934       .  S
Fe333       O351   2.084       .  S
Fe333       O345   2.047   1_556  S
Fe333       O334   2.128       .  S
Fe333      O1362   2.109       .  S
Fe333      O1366   1.978       .  S
O334       C1365   1.269       .  A
O335       C1373   1.264       .  A
O336        C341   1.249       .  A
O337      Fe1355   2.087   1_554  S
O337        C340   1.278       .  A
O338      Fe1357   2.102       .  S
O338        C350   1.286       .  A
O339        C352   1.269       .  A
C340        O345   1.273       .  A
C340        C693   1.459       .  S
C341       O1358   1.268       .  A
C341       C1395   1.513       .  S
O342      Fe1357   1.977       .  S
O343        C346   1.271       .  A
O344        C346   1.271       .  A
C346        C679   1.470       .  S
O347        C352   1.262       .  A
O348        C350   1.277       .  A
C349        O351   1.272       .  A
C349       O1359   1.263       .  A
C349        C480   1.487   1_556  S
C350        C357   1.492       .  S
C352        C732   1.485       .  S
C353        C354   1.409       .  A
C353        C358   1.411       .  A
C353        H360   1.084       .  S
C354        C355   1.416       .  A
C355        C356   1.411       .  A
C355        N362   1.438       .  S
C356        C357   1.408       .  A
C356        H361   1.084       .  S
C357        C358   1.416       .  A
C358        N359   1.438       .  S
N359        H363   1.046       .  S
N359        H364   1.044       .  S
N362        H365   1.044       .  S
N362        H366   1.046       .  S
C367        C368   1.414       .  A
C367       C1396   1.408       .  A
C367       H1398   1.083       .  S
C368        C369   1.414       .  A
C369        C370   1.416   1_554  A
C369        N376   1.437   1_554  S
C370        C371   1.415       .  A
C370        H375   1.083       .  S
C371       C1365   1.514       .  S
C371       C1396   1.418   1_556  A
C372       C1391   1.407       .  A
C372       C1395   1.418       .  A
C372        N373   1.432       .  S
N373        H377   1.045       .  S
N373        H378   1.044       .  S
H374       C1391   1.083       .  S
N376        H379   1.045   1_556  S
N376        H380   1.046       .  S
C381        C382   1.416   1_455  A
C381        C386   1.416       .  A
C381        H388   1.083       .  S
C382        C383   1.413       .  A
C383        C384   1.422   1_655  A
C383        N390   1.437       .  S
C384        C385   1.418       .  A
C384        H389   1.083       .  S
C385        C386   1.411       .  A
C386        N387   1.437       .  S
N387        H391   1.045       .  S
N387        H392   1.046       .  S
N390        H393   1.045       .  S
N390        H394   1.046       .  S
C395        C396   1.406       .  A
C395        C400   1.418       .  A
C395        H402   1.083       .  S
C396        C397   1.415       .  A
C397        C398   1.411       .  A
C397        N404   1.433       .  S
C398        C399   1.404       .  A
C398        H403   1.084       .  S
C399        C400   1.413       .  A
C400        N401   1.432       .  S
N401        H405   1.045       .  S
N401        H406   1.045       .  S
N404        H407   1.046       .  S
N404        H408   1.045       .  S
C409        C414   1.400       .  A
C409       C1434   1.403       .  A
C409        H416   1.084       .  S
C410        C411   1.409       .  A
C410       C1433   1.400       .  A
C411        C412   1.403       .  A
C411        N418   1.438       .  S
C412       C1437   1.408       .  A
C412        H417   1.083       .  S
C413        C414   1.412   1_554  A
C413       C1436   1.409       .  A
C414        N415   1.432       .  S
N415        H419   1.046   1_556  S
N415        H420   1.046       .  S
N418        H421   1.045       .  S
N418        H422   1.046       .  S
C423        C424   1.402       .  A
C423        C428   1.400       .  A
C423        H430   1.084       .  S
C424        C425   1.411       .  A
C425        C426   1.397       .  A
C425        N432   1.433       .  S
C426        C427   1.400       .  A
C426        H431   1.084       .  S
C427        C428   1.411       .  A
C428        N429   1.438       .  S
N429        H433   1.046       .  S
N429        H434   1.045       .  S
N432        H435   1.046       .  S
N432        H436   1.046   1_655  S
C437        C438   1.398       .  A
C437        C442   1.398       .  A
C437        H444   1.084       .  S
C438        C439   1.406       .  A
C439        C440   1.397       .  A
C439        N446   1.439       .  S
C440        C441   1.407       .  A
C440        H445   1.084       .  S
C441        C442   1.416       .  A
C442        N443   1.438       .  S
N443        H447   1.046       .  S
N443        H448   1.046       .  S
N446        H449   1.046       .  S
N446        H450   1.046       .  S
C451        C452   1.403       .  A
C451        C456   1.408       .  A
C451        H458   1.084   1_455  S
C452        C453   1.422       .  A
C453        C454   1.413       .  A
C453        N460   1.438       .  S
C454        C455   1.404       .  A
C454        H459   1.084       .  S
C455        C456   1.411       .  A
C456        N457   1.432   1_455  S
N457        H461   1.045   1_655  S
N457        H462   1.046       .  S
N460        H463   1.044       .  S
N460        H464   1.045       .  S
C465        C466   1.407       .  A
C465        C470   1.404       .  A
C465        H472   1.083       .  S
C466        C467   1.413       .  A
C467        C468   1.401       .  A
C467        N474   1.432       .  S
C468        C469   1.405       .  A
C468        H473   1.084       .  S
C469        C470   1.414       .  A
C470        N471   1.438       .  S
N471        H475   1.046       .  S
N471        H476   1.046       .  S
N474        H477   1.045   1_655  S
N474        H478   1.046   1_655  S
C479        C480   1.410       .  A
C479        C484   1.406       .  A
C479        H486   1.083       .  S
C480        C481   1.413       .  A
C481        C482   1.400       .  A
C481        N488   1.439       .  S
C482        C483   1.407       .  A
C482        H487   1.083       .  S
C483        C484   1.411       .  A
C484        N485   1.437       .  S
N485        H489   1.046       .  S
N485        H490   1.045       .  S
N488       H1515   1.046       .  S
N488       H1516   1.045       .  S
H491       N1512   1.045       .  S
H492       N1512   1.046       .  S
C493        C498   1.412       .  A
C493       C1518   1.401   1_655  A
C493        H500   1.084       .  S
C494        C495   1.417       .  A
C494       C1517   1.400   1_455  A
C495        C496   1.411       .  A
C495        N502   1.433       .  S
C496        C497   1.407   1_554  A
C496        H501   1.083       .  S
C497       C1277   1.516       .  S
C497       C1522   1.431   1_455  A
C498       C1521   1.430   1_655  A
C498        N499   1.433       .  S
N499        H503   1.044       .  S
N499        H504   1.046       .  S
N502        H505   1.046       .  S
N502        H506   1.046       .  S
C507        C508   1.398       .  A
C507        C512   1.407       .  A
C507        H514   1.084       .  S
C508        C509   1.411       .  A
C509        C510   1.399       .  A
C509        N516   1.434       .  S
C510        C511   1.402       .  A
C510        H515   1.083       .  S
C511        C512   1.425       .  A
C512        N513   1.438       .  S
N513        H517   1.046       .  S
N513        H518   1.045       .  S
N516        H519   1.044       .  S
N516        H520   1.046       .  S
C521        C522   1.400       .  A
C521        C526   1.402       .  A
C521        H528   1.085       .  S
C522        C523   1.412       .  A
C523        C524   1.392       .  A
C523        N530   1.432       .  S
C524        C525   1.402       .  A
C524        H529   1.084       .  S
C525        C526   1.416       .  A
C526        N527   1.437       .  S
N527        H531   1.046       .  S
N527        H532   1.043       .  S
N530        H533   1.043       .  S
N530        H534   1.044       .  S
C535        C536   1.408       .  A
C535        C540   1.415   1_565  A
C535        H542   1.083       .  S
C536        C537   1.420   1_665  A
C537        C538   1.414       .  A
C537        N544   1.433       .  S
C538        C539   1.408       .  A
C538        H543   1.083       .  S
C539        C540   1.418   1_455  A
C540        N541   1.432   1_545  S
N541        H545   1.046   1_655  S
N541        H546   1.045       .  S
N544        H547   1.045       .  S
N544        H548   1.045       .  S
C549        C550   1.406       .  A
C549        C554   1.413       .  A
C549        H556   1.082       .  S
C550        C551   1.417       .  A
C551        C552   1.416       .  A
C551        N558   1.438       .  S
C552        C553   1.403       .  A
C552        H557   1.080       .  S
C553        C554   1.412       .  A
C554        N555   1.432       .  S
N555        H559   1.046       .  S
N555        H560   1.046   1_455  S
N558        H561   1.046       .  S
N558        H562   1.045       .  S
C563        C564   1.400       .  A
C563        C568   1.402       .  A
C563        H570   1.084       .  S
C564        C565   1.409       .  A
C565        C566   1.398       .  A
C565        N572   1.433       .  S
C566        C567   1.403       .  A
C566        H571   1.084       .  S
C567        C568   1.417       .  A
C568        N569   1.433       .  S
N569        H573   1.046       .  S
N569        H574   1.045       .  S
N572        H575   1.046       .  S
N572        H576   1.045       .  S
C577        C578   1.405       .  A
C577        C582   1.399       .  A
C577        H584   1.084       .  S
C578        C579   1.412       .  A
C579        C580   1.404       .  A
C579        N586   1.438       .  S
C580        C581   1.402       .  A
C580        H585   1.084       .  S
C581        C582   1.417       .  A
C582        N583   1.439       .  S
N583        H587   1.046       .  S
N583        H588   1.040       .  S
N586        H589   1.046       .  S
N586        H590   1.046       .  S
C591        C592   1.401       .  A
C591        C596   1.398       .  A
C591        H598   1.082       .  S
C592        C593   1.412       .  A
C593        C594   1.397       .  A
C593        N600   1.439       .  S
C594        C595   1.397       .  A
C594        H599   1.084       .  S
C595        C596   1.412       .  A
C596        N597   1.433       .  S
N597        H601   1.045       .  S
N597        H602   1.046       .  S
N600        H603   1.044       .  S
N600        H604   1.046       .  S
C605        C606   1.409       .  A
C605        C610   1.400       .  A
C605        H612   1.083       .  S
C606        C607   1.418       .  A
C607        C608   1.406       .  A
C607        N614   1.438       .  S
C608        C609   1.401       .  A
C608        H613   1.084       .  S
C609        C610   1.405       .  A
C610        N611   1.433       .  S
N611        H615   1.046       .  S
N611        H616   1.046       .  S
N614        H617   1.046       .  S
N614        H618   1.046       .  S
C619        C620   1.409       .  A
C619        C624   1.413       .  A
C619        H626   1.084       .  S
C620        C621   1.416       .  A
C621        C622   1.412       .  A
C621        N628   1.437       .  S
C622        C623   1.408       .  A
C622        H627   1.084       .  S
C623        C624   1.417       .  A
C624        N625   1.437       .  S
N625        H629   1.045       .  S
N625        H630   1.045       .  S
N628        H631   1.045       .  S
N628        H632   1.044       .  S
C633        C638   1.402       .  A
C633       C1658   1.401       .  A
C633        H640   1.084       .  S
C634        C635   1.411       .  A
C634       C1657   1.400       .  A
C635        C636   1.404       .  A
C635        N642   1.433       .  S
C636        C637   1.407       .  A
C636        H641   1.083       .  S
C637       C1662   1.419       .  A
C638       C1661   1.416       .  A
C638        N639   1.431       .  S
N639        H643   1.046       .  S
N639        H644   1.046       .  S
N642        H645   1.045       .  S
N642        H646   1.046       .  S
C647        C648   1.407       .  A
C647        C652   1.403       .  A
C647        H654   1.084       .  S
C648        C649   1.411       .  A
C649        C650   1.401       .  A
C649        N656   1.438       .  S
C650        C651   1.409       .  A
C650        H655   1.083       .  S
C651        C652   1.414       .  A
C652        N653   1.438       .  S
N653        H657   1.045       .  S
N653        H658   1.046       .  S
N656        H659   1.045       .  S
N656        H660   1.046       .  S
C661        C662   1.409       .  A
C661        C666   1.416       .  A
C661        H668   1.083       .  S
C662        C663   1.428       .  A
C663        C664   1.411       .  A
C663        N670   1.433       .  S
C664        C665   1.406       .  A
C664        H669   1.084       .  S
C665        C666   1.419       .  A
C666        N667   1.432       .  S
N667        H671   1.045       .  S
N667        H672   1.045       .  S
N670        H673   1.045       .  S
N670        H674   1.045       .  S
C675        C676   1.399       .  A
C675        C680   1.398       .  A
C675        H682   1.084       .  S
C676        C677   1.404       .  A
C677        C678   1.394       .  A
C677        N684   1.433       .  S
C678        C679   1.405       .  A
C678        H683   1.084       .  S
C679        C680   1.412       .  A
C680        N681   1.433       .  S
N681        H685   1.045       .  S
N681        H686   1.046       .  S
N684        H687   1.046       .  S
N684        H688   1.046       .  S
C689        C690   1.407       .  A
C689        C694   1.389       .  A
C689        H696   1.083       .  S
C690        C691   1.419       .  A
C691        C692   1.404       .  A
C691        N698   1.438       .  S
C692        C693   1.398       .  A
C692        H697   1.082       .  S
C693        C694   1.407       .  A
C694        N695   1.433       .  S
N695        H699   1.046       .  S
N695        H700   1.045       .  S
N698        H701   1.045       .  S
N698        H702   1.046       .  S
C703        C704   1.407   1_556  A
C703       C1732   1.413   1_565  A
C703       H1734   1.083       .  S
C704        C705   1.420   1_565  A
C705        C706   1.411       .  A
C705        N712   1.432       .  S
C706        C707   1.405   1_554  A
C706        H711   1.083       .  S
C707       C1167   1.508       .  S
C707       C1732   1.421       .  A
C708       C1727   1.414   1_545  A
C708       C1731   1.420       .  A
C708        N709   1.432       .  S
N709        H713   1.046   1_545  S
N709        H714   1.045   1_545  S
H710       C1727   1.083       .  S
N712        H715   1.046       .  S
N712        H716   1.045       .  S
C717        C718   1.408       .  A
C717        C722   1.413       .  A
C717        H724   1.084       .  S
C718        C719   1.410       .  A
C719        C720   1.416       .  A
C719        N726   1.437       .  S
C720        C721   1.409       .  A
C720        H725   1.084       .  S
C721        C722   1.412       .  A
C722        N723   1.438       .  S
N723        H727   1.046       .  S
N723        H728   1.044       .  S
N726        H729   1.045       .  S
N726        H730   1.046       .  S
C731        C732   1.407       .  A
C731       C1760   1.399       .  A
C731        H738   1.084       .  S
C732       C1757   1.414       .  A
C733        C734   1.409   1_556  A
C733       C1756   1.416       .  A
C733        N740   1.438       .  S
C734        C735   1.407       .  A
C734        H739   1.083       .  S
C735        C736   1.415       .  A
C736       C1755   1.398   1_554  A
C736        N737   1.433       .  S
N737        H741   1.046   1_554  S
N737        H742   1.046       .  S
N740        H744   1.046       .  S
N740       H1767   1.045       .  S
H743       N1764   1.046       .  S
C745        C746   1.402       .  A
C745        C750   1.403       .  A
C745        H752   1.084       .  S
C746        C747   1.415       .  A
C747        C748   1.395       .  A
C747        N754   1.433       .  S
C748        C749   1.405       .  A
C748        H753   1.084       .  S
C749        C750   1.416       .  A
C750        N751   1.433       .  S
N751        H755   1.046       .  S
N751        H756   1.046       .  S
N754        H757   1.045       .  S
N754        H758   1.044       .  S
C759        C760   1.405       .  A
C759        C764   1.405       .  A
C759        H766   1.084       .  S
C760        C761   1.411       .  A
C761        C762   1.402       .  A
C761        N768   1.438       .  S
C762        C763   1.405       .  A
C762        H767   1.084       .  S
C763        C764   1.413       .  A
C764        N765   1.438       .  S
N765        H769   1.046   1_565  S
N765        H770   1.045       .  S
N768        H771   1.046       .  S
N768        H772   1.045       .  S
C773        C774   1.395       .  A
C773        C778   1.400       .  A
C773        H780   1.084       .  S
C774        C775   1.411       .  A
C775        C776   1.398       .  A
C775        N782   1.432       .  S
C776        C777   1.402       .  A
C776        H781   1.084       .  S
C777        C778   1.418       .  A
C778        N779   1.439       .  S
N779        H783   1.046       .  S
N779        H784   1.046       .  S
N782        H785   1.046       .  S
N782        H786   1.045       .  S
C787        C788   1.405       .  A
C787        C792   1.407       .  A
C787        H794   1.084       .  S
C788        C789   1.406       .  A
C789        C790   1.402       .  A
C789        N796   1.432       .  S
C790        C791   1.409       .  A
C790        H795   1.083       .  S
C791        C792   1.419       .  A
C792        N793   1.438       .  S
N793        H797   1.046   1_565  S
N793        H798   1.046   1_565  S
N796        H799   1.046       .  S
N796        H800   1.045       .  S
C801        C806   1.398       .  A
C801       C1826   1.402       .  A
C801        H808   1.084       .  S
C802        C803   1.414       .  A
C802       C1825   1.402   1_554  A
C803        C804   1.399   1_554  A
C803        N810   1.432       .  S
C804       C1829   1.400       .  A
C804        H809   1.084       .  S
C805        C806   1.409       .  A
C805       C1828   1.399       .  A
C806        N807   1.433       .  S
N807        H811   1.046       .  S
N807        H812   1.045       .  S
N810        H813   1.046       .  S
N810        H814   1.046       .  S
C815        C816   1.405       .  A
C815        C820   1.408       .  A
C815        H822   1.084       .  S
C816        C817   1.421       .  A
C817        C818   1.413       .  A
C817        N824   1.438       .  S
C818        C819   1.404       .  A
C818        H823   1.084       .  S
C819        C820   1.419       .  A
C820        N821   1.432   1_545  S
N821        H825   1.044       .  S
N821        H826   1.046   1_565  S
N824        H827   1.044       .  S
N824        H828   1.045       .  S
C829        C830   1.404       .  A
C829        C834   1.393       .  A
C829        H836   1.084       .  S
C830        C831   1.417       .  A
C831        C832   1.405       .  A
C831       N1862   1.438       .  S
C832        C833   1.403       .  A
C832        H837   1.084       .  S
C833        C834   1.410       .  A
C834        N835   1.434       .  S
N835        H839   1.046       .  S
N835        H840   1.046       .  S
N838       C1855   1.438       .  S
N838        H841   1.045       .  S
N838       H1866   1.046       .  S
H842       N1862   1.046       .  S
C843        C844   1.402       .  A
C843        C848   1.400       .  A
C843        H850   1.084       .  S
C844        C845   1.421       .  A
C845        C846   1.395       .  A
C845        N852   1.433   1_565  S
C846        C847   1.398       .  A
C846        H851   1.084       .  S
C847        C848   1.410       .  A
C848        N849   1.437       .  S
N849        H853   1.046       .  S
N849        H854   1.046       .  S
N852        H855   1.043       .  S
N852        H856   1.044   1_545  S
C857        C858   1.405       .  A
C857        C862   1.397       .  A
C857        H864   1.084       .  S
C858        C859   1.413       .  A
C859        C860   1.402       .  A
C859        N866   1.438       .  S
C860        C861   1.402       .  A
C860        H865   1.084       .  S
C861        C862   1.407       .  A
C862        N863   1.439       .  S
N863        H867   1.045       .  S
N863        H868   1.045       .  S
N866        H869   1.046       .  S
N866        H870   1.046       .  S
C871        C872   1.407       .  A
C871        C876   1.400       .  A
C871        H878   1.083       .  S
C872        C873   1.412       .  A
C873        C874   1.401       .  A
C873        N880   1.433       .  S
C874        C875   1.407       .  A
C874        H879   1.084       .  S
C875        C876   1.416       .  A
C876        N877   1.430       .  S
N877        H881   1.045       .  S
N877        H882   1.043       .  S
N880        H883   1.046       .  S
N880        H884   1.046       .  S
C885        C886   1.408       .  A
C885        C890   1.414       .  A
C885        H892   1.083       .  S
C886        C887   1.419       .  A
C887        C888   1.415       .  A
C887        N894   1.438       .  S
C888        C889   1.408       .  A
C888        H893   1.083   1_545  S
C889        C890   1.419       .  A
C890        N891   1.438       .  S
N891        H895   1.045       .  S
N891        H896   1.046   1_545  S
N894        H897   1.046       .  S
N894        H898   1.045   1_545  S
C899        C900   1.401       .  A
C899        C904   1.394       .  A
C899        H906   1.083       .  S
C900        C901   1.409       .  A
C901        C902   1.404       .  A
C901        N908   1.438       .  S
C902        C903   1.407       .  A
C902        H907   1.084       .  S
C903        C904   1.416       .  A
C904        N905   1.432       .  S
N905        H909   1.045       .  S
N905        H910   1.045       .  S
N908        H911   1.046       .  S
N908        H912   1.046       .  S
C913        C914   1.401       .  A
C913        C918   1.404       .  A
C913        H920   1.084       .  S
C914        C915   1.411       .  A
C915        C916   1.391       .  A
C915        N922   1.432       .  S
C916        C917   1.405       .  A
C916        H921   1.083       .  S
C917        C918   1.415       .  A
C918        N919   1.438       .  S
N919        H923   1.046       .  S
N919        H924   1.046       .  S
N922        H925   1.045       .  S
N922        H926   1.045       .  S
C927        C928   1.403       .  A
C927        C932   1.400       .  A
C927        H934   1.083       .  S
C928        C929   1.412       .  A
C929        C930   1.401       .  A
C929        N936   1.430       .  S
C930        C931   1.403       .  A
C930        H935   1.084       .  S
C931        C932   1.419       .  A
C932        N933   1.439       .  S
N933        H937   1.045       .  S
N933        H938   1.046       .  S
N936        H939   1.045       .  S
N936        H940   1.046       .  S
C941        C946   1.403       .  A
C941       C1966   1.401       .  A
C941        H948   1.084       .  S
C942        C943   1.412       .  A
C942       C1965   1.401       .  A
C943        C944   1.395       .  A
C943        N950   1.434       .  S
C944        C945   1.402       .  A
C944        H949   1.084       .  S
C945       C1970   1.419       .  A
C946       C1969   1.418       .  A
C946        N947   1.438       .  S
N947        H951   1.046       .  S
N947        H952   1.045       .  S
N950        H953   1.046       .  S
N950        H954   1.046       .  S
C955        C960   1.414   1_655  A
C955       C1980   1.402   1_565  A
C955        H962   1.084       .  S
C956        C957   1.417   1_655  A
C956       C1979   1.404   1_545  A
C957        C958   1.409       .  A
C957        N964   1.433       .  S
C958        C959   1.404   1_554  A
C958        H963   1.081       .  S
C959       C1079   1.508       .  S
C959       C1984   1.423   1_545  A
C960       C1983   1.424   1_565  A
C960        N961   1.432       .  S
N961        H965   1.045   1_455  S
N961        H966   1.046   1_455  S
N964        H967   1.046       .  S
N964        H968   1.046       .  S
C969        C970   1.409       .  A
C969        C974   1.414       .  A
C969        H976   1.084       .  S
C970        C971   1.409       .  A
C971        C972   1.412       .  A
C971        N978   1.431       .  S
C972        C973   1.407       .  A
C972        H977   1.084       .  S
C973        C974   1.418       .  A
C974        N975   1.437       .  S
N975        H979   1.045       .  S
N975        H980   1.045       .  S
N978        H981   1.045   1_545  S
N978        H982   1.045       .  S
C983        C984   1.404       .  A
C983        C988   1.399   1_554  A
C983        H990   1.084       .  S
C984       C2009   1.406       .  A
C985        C986   1.403       .  A
C985       C2008   1.409       .  A
C985        N992   1.432       .  S
C986        C987   1.406       .  A
C986        H991   1.084       .  S
C987       C2012   1.412       .  A
C988       C2011   1.417       .  A
C988        N989   1.431       .  S
N989        H993   1.045       .  S
N989        H994   1.045       .  S
N992        H995   1.045       .  S
N992        H996   1.046       .  S
C997        C998   1.404       .  A
C997       C1002   1.404       .  A
C997       H1004   1.084       .  S
C998        C999   1.405       .  A
C999       C1000   1.403       .  A
C999       N1006   1.438       .  S
C1000      C1001   1.412       .  A
C1000      H1005   1.083       .  S
C1001      C1002   1.416       .  A
C1002      N1003   1.438       .  S
N1003      H1007   1.046       .  S
N1003      H1008   1.046       .  S
N1006      H1009   1.046       .  S
N1006      H1010   1.045       .  S
C1011      C1012   1.403       .  A
C1011      C1016   1.398       .  A
C1011      H1018   1.083       .  S
C1012      C1013   1.410       .  A
C1013      C1014   1.399       .  A
C1013      N1020   1.433       .  S
C1014      C1015   1.401       .  A
C1014      H1019   1.084       .  S
C1015      C1016   1.406       .  A
C1016      N1017   1.433       .  S
N1017      H1021   1.046       .  S
N1017      H1022   1.046       .  S
N1020      H1023   1.046   1_655  S
N1020      H1024   1.046       .  S
Fe1025     O1041   2.045       .  S
Fe1025     O1031   2.003       .  S
Fe1025     O1038   2.041       .  S
Fe1025     O1036   1.942       .  S
Fe1026     O1029   2.044       .  S
Fe1026     O1033   2.090       .  S
Fe1026     O1037   2.069       .  S
Fe1026     O1042   2.040       .  S
Fe1026     O1036   1.938       .  S
Fe1027     O1045   2.131       .  S
Fe1027     O1032   2.075       .  S
Fe1027     O1039   2.125       .  S
Fe1027     O1036   1.954       .  S
O1028      C1035   1.280   1_554  A
O1029      C1043   1.269       .  A
O1030      C1035   1.283   1_554  A
O1031      C1034   1.252       .  A
O1032      C1044   1.270       .  A
O1033      C1046   1.282       .  A
C1034      O1039   1.281       .  A
C1034      C1980   1.491       .  S
C1035      C2022   1.463       .  S
O1037      C1040   1.257       .  A
O1038      C1040   1.249       .  A
C1040      C1966   1.473       .  S
O1041      C1046   1.275       .  A
O1042      C1044   1.265       .  A
C1043      O1045   1.287       .  A
C1043      C1994   1.489       .  S
C1044      C2008   1.480       .  S
C1046      C2036   1.477       .  S
Fe1047     O1063   2.065       .  S
Fe1047     O1053   2.023       .  S
Fe1047     O1060   2.033       .  S
Fe1047     O1052   2.089       .  S
Fe1047     O1058   1.948       .  S
Fe1048     O1051   2.092       .  S
Fe1048     O1055   2.046       .  S
Fe1048     O1059   2.084       .  S
Fe1048     O1064   2.034       .  S
Fe1048     O1058   1.936       .  S
Fe1049     O1067   2.099       .  S
Fe1049     O1054   2.088       .  S
Fe1049     O1061   2.130       .  S
Fe1049     O1050   2.040       .  S
Fe1049     O1058   1.972       .  S
O1050      C1057   1.273       .  A
O1051      C1065   1.279       .  A
O1052      C1057   1.279       .  A
O1053      C1056   1.253       .  A
O1054      C1066   1.271       .  A
O1055      C1068   1.270       .  A
C1056      O1061   1.273       .  A
C1056      C1913   1.510       .  S
C1057      C1927   1.470       .  S
O1059      C1062   1.270       .  A
O1060      C1062   1.262       .  A
C1062      C1899   1.478       .  S
O1063      C1068   1.272       .  A
O1064      C1066   1.260       .  A
C1065      O1067   1.285       .  A
C1065      C1997   1.492       .  S
C1066      C1952   1.483       .  S
C1068      C1941   1.472       .  S
Fe1069     O1085   2.031       .  S
Fe1069     O1082   2.064       .  S
Fe1069     O1074   2.007       .  S
Fe1069     O1080   1.942       .  S
Fe1070     O1073   2.043       .  S
Fe1070     O1077   2.078       .  S
Fe1070     O1081   2.049       .  S
Fe1070     O1086   2.086       .  S
Fe1070     O1080   1.934       .  S
Fe1071     O1089   2.076       .  S
Fe1071     O1083   2.031       .  S
Fe1071     O1072   2.138   1_565  S
O1074      C1079   1.245   1_565  A
O1075      C1078   1.282       .  A
O1076      C1088   1.285   1_545  A
O1077      C1090   1.270       .  A
C1078      O1083   1.268       .  A
C1078      C1868   1.471       .  S
O1081      C1084   1.271       .  A
O1082      C1084   1.272       .  A
C1084      C1882   1.478       .  S
O1085      C1090   1.262       .  A
O1086      C1088   1.276       .  A
C1087      O1089   1.272       .  A
C1087      C1854   1.481       .  S
C1088      C1843   1.492   1_565  S
C1090      C1829   1.472       .  S
Fe1091     O1107   2.029       .  S
Fe1091     O1097   2.100       .  S
Fe1091     O1104   2.069       .  S
Fe1091     O1096   2.015       .  S
Fe1091     O1102   1.940       .  S
Fe1092     O1095   2.055       .  S
Fe1092     O1099   2.070       .  S
Fe1092     O1103   2.054       .  S
Fe1092     O1108   2.082       .  S
Fe1092     O1102   1.935       .  S
Fe1093     O1111   2.075       .  S
Fe1093     O1098   2.103   1_565  S
Fe1093     O1105   2.037       .  S
Fe1093     O1094   2.131   1_565  S
Fe1093     O1102   1.971       .  S
O1094      C1101   1.269       .  A
O1095      C1109   1.264       .  A
O1096      C1101   1.249   1_565  A
O1097      C1100   1.284       .  A
O1098      C1110   1.289   1_545  A
O1099      C1112   1.268       .  A
C1100      O1105   1.275       .  A
C1100      C1784   1.469       .  S
C1101      C1910   1.512       .  S
O1103      C1106   1.271       .  A
O1104      C1106   1.273       .  A
C1106      C1798   1.463       .  S
O1107      C1112   1.259       .  A
O1108      C1110   1.278       .  A
C1109      O1111   1.266       .  A
C1109      C1815   1.487       .  S
C1110      C1840   1.487   1_565  S
C1112      C1770   1.474       .  S
Fe1113     O1129   2.069       .  S
Fe1113     O1119   2.015       .  S
Fe1113     O1126   2.024       .  S
Fe1113     O1124   1.946       .  S
Fe1114     O1117   2.080       .  S
Fe1114     O1121   2.049       .  S
Fe1114     O1125   2.070       .  S
Fe1114     O1130   2.046       .  S
Fe1114     O1124   1.935       .  S
Fe1115     O1133   2.108       .  S
Fe1115     O1120   2.085       .  S
Fe1115     O1127   2.134       .  S
Fe1115     O1124   1.971       .  S
O1116      C1123   1.273   1_554  A
O1117      C1131   1.276       .  A
O1118      C1123   1.284   1_554  A
O1119      C1122   1.249       .  A
O1120      C1132   1.270       .  A
O1121      C1134   1.272       .  A
C1122      O1127   1.272       .  A
C1122      C1728   1.512       .  S
C1123      C1801   1.471       .  S
O1125      C1128   1.267       .  A
O1126      C1128   1.260       .  A
C1128      C1857   1.465       .  S
O1129      C1134   1.275       .  A
O1130      C1132   1.264       .  A
C1131      O1133   1.288       .  A
C1131      C1742   1.490       .  S
C1132      C1759   1.485       .  S
C1134      C1787   1.474       .  S
Fe1135     O1151   2.059       .  S
Fe1135     O1141   2.015       .  S
Fe1135     O1148   2.034       .  S
Fe1135     O1140   2.090       .  S
Fe1135     O1146   1.947       .  S
Fe1136     O1139   2.084       .  S
Fe1136     O1143   2.048       .  S
Fe1136     O1147   2.074       .  S
Fe1136     O1152   2.042       .  S
Fe1136     O1146   1.938       .  S
Fe1137     O1155   2.104       .  S
Fe1137     O1142   2.085       .  S
Fe1137     O1149   2.130       .  S
Fe1137     O1138   2.034       .  S
Fe1137     O1146   1.979       .  S
O1138      C1145   1.273       .  A
O1139      C1153   1.276       .  A
O1140      C1145   1.280       .  A
O1141      C1144   1.249       .  A
O1142      C1154   1.272       .  A
O1143      C1156   1.271       .  A
C1144      O1149   1.271       .  A
C1144      C1686   1.517       .  S
C1145      C1700   1.462       .  S
O1147      C1150   1.268       .  A
O1148      C1150   1.262       .  A
C1150      C1675   1.476       .  S
O1151      C1156   1.272       .  A
O1152      C1154   1.263       .  A
C1153      O1155   1.285       .  A
C1153      C1745   1.491       .  S
C1154      C1773   1.484       .  S
C1156      C1714   1.473       .  S
Fe1157     O1173   2.031       .  S
Fe1157     O1170   2.058       .  S
Fe1157     O1162   2.012       .  S
Fe1157     O1168   1.952       .  S
Fe1158     O1161   2.046       .  S
Fe1158     O1165   2.084       .  S
Fe1158     O1169   2.050       .  S
Fe1158     O1174   2.084       .  S
Fe1158     O1168   1.934       .  S
Fe1159     O1177   2.084       .  S
Fe1159     O1171   2.042       .  S
Fe1159     O1160   2.134       .  S
O1162      C1167   1.247       .  A
O1163      C1166   1.281       .  A
O1164      C1176   1.285       .  A
O1165      C1178   1.272       .  A
C1166      O1171   1.275       .  A
C1166      C1938   1.471       .  S
O1169      C1172   1.269       .  A
O1170      C1172   1.269       .  A
C1172      C1924   1.467       .  S
O1173      C1178   1.263       .  A
O1174      C1176   1.277       .  A
C1175      O1177   1.270       .  A
C1175      C1661   1.492       .  S
C1176      C1647   1.489       .  S
C1178      C2011   1.486       .  S
Fe1179     O1195   2.033       .  S
Fe1179     O1185   2.098       .  S
Fe1179     O1192   2.076       .  S
Fe1179     O1184   2.022       .  S
Fe1179     O1190   1.948       .  S
Fe1180     O1183   2.048       .  S
Fe1180     O1187   2.078       .  S
Fe1180     O1191   2.046       .  S
Fe1180     O1196   2.083       .  S
Fe1180     O1190   1.939       .  S
Fe1181     O1199   2.087       .  S
Fe1181     O1186   2.099       .  S
Fe1181     O1193   2.028       .  S
Fe1181     O1182   2.130       .  S
Fe1181     O1190   1.968       .  S
O1182      C1189   1.273       .  A
O1183      C1197   1.265       .  A
O1184      C1189   1.253       .  A
O1185      C1188   1.281       .  A
O1186      C1198   1.284       .  A
O1187      C1200   1.268       .  A
C1188      O1193   1.271       .  A
C1188      C1616   1.465       .  S
C1189      C1689   1.513       .  S
O1191      C1194   1.271       .  A
O1192      C1194   1.275       .  A
C1194      C1630   1.477       .  S
O1195      C1200   1.261       .  A
O1196      C1198   1.276       .  A
C1197      O1199   1.271       .  A
C1197      C1896   1.488       .  S
C1198      C1644   1.488       .  S
C1200      C1605   1.470       .  S
Fe1201     O1217   2.069       .  S
Fe1201     O1207   2.015       .  S
Fe1201     O1214   2.030       .  S
Fe1201     O1206   2.094       .  S
Fe1201     O1212   1.944       .  S
Fe1202     O1205   2.080       .  S
Fe1202     O1209   2.046       .  S
Fe1202     O1213   2.079       .  S
Fe1202     O1218   2.033       .  S
Fe1202     O1212   1.936       .  S
Fe1203     O1221   2.111       .  S
Fe1203     O1208   2.090       .  S
Fe1203     O1215   2.137   1_455  S
Fe1203     O1204   2.039       .  S
Fe1203     O1212   1.979       .  S
O1204      C1211   1.273       .  A
O1205      C1219   1.275       .  A
O1206      C1211   1.280       .  A
O1207      C1210   1.250       .  A
O1208      C1220   1.273       .  A
O1209      C1222   1.269       .  A
C1210      O1215   1.272   1_455  A
C1210      C1560   1.513       .  S
C1211      C1885   1.465       .  S
O1213      C1216   1.269       .  A
O1214      C1216   1.262       .  A
C1216      C1812   1.480       .  S
O1217      C1222   1.273       .  A
O1218      C1220   1.261       .  A
C1219      O1221   1.287       .  A
C1219      C1577   1.493       .  S
C1220      C1591   1.482       .  S
C1222      C1871   1.471       .  S
Fe1223     O1239   2.052       .  S
Fe1223     O1229   2.016       .  S
Fe1223     O1236   2.046       .  S
Fe1223     O1234   1.943       .  S
Fe1224     O1227   2.059       .  S
Fe1224     O1231   2.092       .  S
Fe1224     O1235   2.075       .  S
Fe1224     O1240   2.041       .  S
Fe1224     O1234   1.943       .  S
Fe1225     O1243   2.130       .  S
Fe1225     O1230   2.066       .  S
Fe1225     O1237   2.116       .  S
Fe1225     O1234   1.952       .  S
O1226      C1233   1.281       .  A
O1227      C1241   1.273       .  A
O1228      C1233   1.285       .  A
O1229      C1232   1.253       .  A
O1230      C1242   1.268       .  A
O1231      C1244   1.281       .  A
C1232      O1237   1.278       .  A
C1232      C1518   1.494       .  S
C1233      C1532   1.474   1_554  S
O1235      C1238   1.257       .  A
O1236      C1238   1.252       .  A
C1238      C1507   1.486       .  S
O1239      C1244   1.279       .  A
O1240      C1242   1.263       .  A
C1241      O1243   1.288       .  A
C1241      C1574   1.494       .  S
C1242      C1826   1.475       .  S
C1244      C1549   1.483       .  S
Fe1245     O1261   2.022       .  S
Fe1245     O1251   2.106       .  S
Fe1245     O1258   2.078       .  S
Fe1245     O1250   2.016       .  S
Fe1245     O1256   1.945       .  S
Fe1246     O1249   2.037       .  S
Fe1246     O1253   2.068       .  S
Fe1246     O1257   2.036       .  S
Fe1246     O1262   2.080       .  S
Fe1246     O1256   1.933       .  S
Fe1247     O1265   2.089       .  S
Fe1247     O1252   2.111   1_655  S
Fe1247     O1259   2.039       .  S
Fe1247     O1248   2.128   1_655  S
Fe1247     O1256   1.970       .  S
O1248      C1255   1.270       .  A
O1249      C1263   1.262       .  A
O1250      C1255   1.250   1_655  A
O1251      C1254   1.285       .  A
O1252      C1264   1.288   1_455  A
O1253      C1266   1.267       .  A
C1254      O1259   1.275       .  A
C1254      C2039   1.466       .  S
C1255      C1563   1.513       .  S
O1257      C1260   1.269       .  A
O1258      C1260   1.277       .  A
C1260      C2025   1.481       .  S
O1261      C1266   1.258       .  A
O1262      C1264   1.276       .  A
C1263      O1265   1.271       .  A
C1263      C1490   1.484       .  S
C1264      C1479   1.492   1_655  S
C1266      C1955   1.468       .  S
Fe1267     O1283   2.025       .  S
Fe1267     O1280   2.063       .  S
Fe1267     O1272   2.008       .  S
Fe1267     O1278   1.945       .  S
Fe1268     O1271   2.032       .  S
Fe1268     O1275   2.080       .  S
Fe1268     O1279   2.045       .  S
Fe1268     O1284   2.090       .  S
Fe1268     O1278   1.937       .  S
Fe1269     O1287   2.089       .  S
Fe1269     O1281   2.023       .  S
O1270      C1277   1.271       .  A
O1272      C1277   1.247   1_655  A
O1273      C1276   1.280       .  A
O1274      C1286   1.285   1_455  A
O1275      C1288   1.270       .  A
C1276      O1281   1.269       .  A
C1276      C1448   1.465       .  S
O1279      C1282   1.270       .  A
O1280      C1282   1.271       .  A
C1282      C1465   1.469       .  S
O1283      C1288   1.261       .  A
O1284      C1286   1.277       .  A
C1285      O1287   1.274       .  A
C1285      C1969   1.477       .  S
C1286      C1476   1.496   1_655  S
C1288      C1434   1.472       .  S
Fe1289     O1305   2.063       .  S
Fe1289     O1295   2.011       .  S
Fe1289     O1302   2.029       .  S
Fe1289     O1294   2.090       .  S
Fe1289     O1300   1.949       .  S
Fe1290     O1293   2.077       .  S
Fe1290     O1297   2.039       .  S
Fe1290     O1301   2.074       .  S
Fe1290     O1306   2.037       .  S
Fe1290     O1300   1.936       .  S
Fe1291     O1309   2.122       .  S
Fe1291     O1296   2.091       .  S
Fe1291     O1303   2.143       .  S
Fe1291     O1292   2.041       .  S
Fe1291     O1300   1.979       .  S
O1292      C1299   1.274       .  A
O1293      C1307   1.274       .  A
O1294      C1299   1.280       .  A
O1295      C1298   1.250       .  A
O1296      C1308   1.273       .  A
O1297      C1310   1.269       .  A
C1298      O1303   1.272       .  A
C1298      C1406   1.519       .  S
C1299      C1462   1.468       .  S
O1301      C1304   1.267       .  A
O1302      C1304   1.261       .  A
C1304      C1493   1.479       .  S
O1305      C1310   1.273       .  A
O1306      C1308   1.264       .  A
C1307      O1309   1.289       .  A
C1307      C1420   1.499       .  S
C1308      C1602   1.483       .  S
C1310      C1451   1.456       .  S
Fe1311     O1327   2.065       .  S
Fe1311     O1317   2.009       .  S
Fe1311     O1324   2.040       .  S
Fe1311     O1322   1.947       .  S
Fe1312     O1315   2.094       .  S
Fe1312     O1319   2.049       .  S
Fe1312     O1323   2.076       .  S
Fe1312     O1328   2.045       .  S
Fe1312     O1322   1.933       .  S
Fe1313     O1331   2.114       .  S
Fe1313     O1318   2.073       .  S
Fe1313     O1325   2.128       .  S
Fe1313     O1322   1.983       .  S
O1314      C1321   1.276   1_554  A
O1315      C1329   1.279       .  A
O1316      C1321   1.283   1_554  A
O1317      C1320   1.246       .  A
O1318      C1330   1.267       .  A
O1319      C1332   1.270       .  A
C1320      O1325   1.266       .  A
C1320      C1392   1.511       .  S
C1321      C1633   1.467       .  S
O1323      C1326   1.270       .  A
O1324      C1326   1.262       .  A
C1326      C1658   1.481       .  S
O1327      C1332   1.272       .  A
O1328      C1330   1.263       .  A
C1329      O1331   1.290       .  A
C1329      C1423   1.499       .  S
C1330      C1437   1.483       .  S
C1332      C1619   1.458       .  S
Fe1333     O1349   2.029       .  S
Fe1333     O1339   2.114       .  S
Fe1333     O1346   2.087       .  S
Fe1333     O1338   2.013       .  S
Fe1333     O1344   1.944       .  S
Fe1334     O1337   2.028       .  S
Fe1334     O1341   2.065       .  S
Fe1334     O1345   2.037       .  S
Fe1334     O1350   2.082       .  S
Fe1334     O1344   1.933       .  S
Fe1335     O1353   2.098       .  S
Fe1335     O1340   2.113       .  S
Fe1335     O1347   2.037       .  S
Fe1335     O1336   2.135       .  S
Fe1335     O1344   1.977       .  S
O1336      C1343   1.271       .  A
O1337      C1351   1.261       .  A
O1338      C1343   1.249       .  A
O1339      C1342   1.286       .  A
O1340      C1352   1.288       .  A
O1341      C1354   1.266       .  A
C1342      O1347   1.273       .  A
C1342      C1546   1.466       .  S
C1343      C1409   1.516       .  S
O1345      C1348   1.268       .  A
O1346      C1348   1.280       .  A
C1348      C1535   1.486       .  S
O1349      C1354   1.259       .  A
O1350      C1352   1.275       .  A
C1351      O1353   1.273       .  A
C1351      C1672   1.485       .  S
C1352      C1378   1.493       .  S
C1354      C1588   1.468       .  S
Fe1355     O1371   2.037       .  S
Fe1355     O1368   2.063       .  S
Fe1355     O1360   2.016       .  S
Fe1355     O1366   1.952       .  S
Fe1356     O1359   2.036       .  S
Fe1356     O1363   2.076       .  S
Fe1356     O1367   2.041       .  S
Fe1356     O1372   2.083       .  S
Fe1356     O1366   1.941       .  S
Fe1357     O1375   2.078       .  S
Fe1357     O1369   2.039       .  S
Fe1357     O1358   2.129       .  S
O1360      C1365   1.251       .  A
O1361      C1364   1.279       .  A
O1362      C1374   1.285       .  A
O1363      C1376   1.268       .  A
C1364      O1369   1.273       .  A
C1364      C1717   1.463       .  S
O1367      C1370   1.269       .  A
O1368      C1370   1.271       .  A
C1370      C1703   1.468       .  S
O1371      C1376   1.263       .  A
O1372      C1374   1.275       .  A
C1373      O1375   1.269       .  A
C1373      C1504   1.487       .  S
C1374      C1381   1.494       .  S
C1376      C1756   1.486       .  S
C1377      C1378   1.408       .  A
C1377      C1382   1.414       .  A
C1377      H1384   1.084       .  S
C1378      C1379   1.414       .  A
C1379      C1380   1.409       .  A
C1379      N1386   1.433       .  S
C1380      C1381   1.409       .  A
C1380      H1385   1.084       .  S
C1381      C1382   1.418       .  A
C1382      N1383   1.438       .  S
N1383      H1387   1.046       .  S
N1383      H1388   1.044       .  S
N1386      H1389   1.045       .  S
N1386      H1390   1.045       .  S
C1391      C1392   1.413       .  A
C1392      C1393   1.414       .  A
C1393      C1394   1.415       .  A
C1393      N1400   1.437       .  S
C1394      C1395   1.415       .  A
C1394      H1399   1.083       .  S
C1396      N1397   1.432       .  S
N1397      H1401   1.046       .  S
N1397      H1402   1.043       .  S
N1400      H1403   1.045       .  S
N1400      H1404   1.046       .  S
C1405      C1406   1.417   1_455  A
C1405      C1410   1.417       .  A
C1405      H1412   1.083       .  S
C1406      C1407   1.413       .  A
C1407      C1408   1.420   1_655  A
C1407      N1414   1.437       .  S
C1408      C1409   1.416       .  A
C1408      H1413   1.083       .  S
C1409      C1410   1.411       .  A
C1410      N1411   1.437       .  S
N1411      H1415   1.045       .  S
N1411      H1416   1.046       .  S
N1414      H1417   1.046       .  S
N1414      H1418   1.046       .  S
C1419      C1420   1.407       .  A
C1419      C1424   1.419       .  A
C1419      H1426   1.082       .  S
C1420      C1421   1.414       .  A
C1421      C1422   1.414       .  A
C1421      N1428   1.433       .  S
C1422      C1423   1.405       .  A
C1422      H1427   1.084       .  S
C1423      C1424   1.414       .  A
C1424      N1425   1.432       .  S
N1425      H1429   1.046       .  S
N1425      H1430   1.046       .  S
N1428      H1431   1.046       .  S
N1428      H1432   1.045       .  S
C1433      C1438   1.401       .  A
C1433      H1440   1.084       .  S
C1434      C1435   1.409       .  A
C1435      C1436   1.403   1_556  A
C1435      N1442   1.438       .  S
C1436      H1441   1.083       .  S
C1437      C1438   1.416       .  A
C1438      N1439   1.438       .  S
N1439      H1443   1.046       .  S
N1439      H1444   1.045       .  S
N1442      H1445   1.045       .  S
N1442      H1446   1.046   1_556  S
C1447      C1448   1.402       .  A
C1447      C1452   1.399       .  A
C1447      H1454   1.084       .  S
C1448      C1449   1.413       .  A
C1449      C1450   1.393       .  A
C1449      N1456   1.433       .  S
C1450      C1451   1.395       .  A
C1450      H1455   1.084       .  S
C1451      C1452   1.410       .  A
C1452      N1453   1.438       .  S
N1453      H1457   1.045       .  S
N1453      H1458   1.046       .  S
N1456      H1459   1.046       .  S
N1456      H1460   1.045   1_655  S
C1461      C1462   1.404       .  A
C1461      C1466   1.398       .  A
C1461      H1468   1.084       .  S
C1462      C1463   1.411       .  A
C1463      C1464   1.399       .  A
C1463      N1470   1.439       .  S
C1464      C1465   1.404       .  A
C1464      H1469   1.084       .  S
C1465      C1466   1.407       .  A
C1466      N1467   1.433       .  S
N1467      H1471   1.046       .  S
N1467      H1472   1.046       .  S
N1470      H1473   1.045       .  S
N1470      H1474   1.046       .  S
C1475      C1476   1.405       .  A
C1475      C1480   1.410       .  A
C1475      H1482   1.084   1_455  S
C1476      C1477   1.423       .  A
C1477      C1478   1.415       .  A
C1477      N1484   1.437       .  S
C1478      C1479   1.405       .  A
C1478      H1483   1.084       .  S
C1479      C1480   1.412       .  A
C1480      N1481   1.433   1_455  S
N1481      H1485   1.045   1_655  S
N1481      H1486   1.046       .  S
N1484      H1487   1.044       .  S
N1484      H1488   1.046       .  S
C1489      C1490   1.409       .  A
C1489      C1494   1.404       .  A
C1489      H1496   1.083       .  S
C1490      C1491   1.411       .  A
C1491      C1492   1.399       .  A
C1491      N1498   1.433       .  S
C1492      C1493   1.405       .  A
C1492      H1497   1.084       .  S
C1493      C1494   1.412       .  A
C1494      N1495   1.438       .  S
N1495      H1499   1.046       .  S
N1495      H1500   1.045       .  S
N1498      H1501   1.046   1_655  S
N1498      H1502   1.046   1_655  S
C1503      C1504   1.409       .  A
C1503      C1508   1.405       .  A
C1503      H1510   1.083       .  S
C1504      C1505   1.415       .  A
C1505      C1506   1.400       .  A
C1505      N1512   1.439       .  S
C1506      C1507   1.406       .  A
C1506      H1511   1.083       .  S
C1507      C1508   1.411       .  A
C1508      N1509   1.436       .  S
N1509      H1513   1.046       .  S
N1509      H1514   1.046       .  S
C1517      C1522   1.411   1_554  A
C1517      H1524   1.084       .  S
C1518      C1519   1.415       .  A
C1519      C1520   1.411       .  A
C1519      N1526   1.432       .  S
C1520      C1521   1.408       .  A
C1520      H1525   1.083       .  S
C1522      N1523   1.432       .  S
N1523      H1527   1.045       .  S
N1523      H1528   1.045       .  S
N1526      H1529   1.046       .  S
N1526      H1530   1.046       .  S
C1531      C1532   1.397       .  A
C1531      C1536   1.400       .  A
C1531      H1538   1.084       .  S
C1532      C1533   1.413       .  A
C1533      C1534   1.401       .  A
C1533      N1540   1.435       .  S
C1534      C1535   1.402       .  A
C1534      H1539   1.083       .  S
C1535      C1536   1.421       .  A
C1536      N1537   1.433       .  S
N1537      H1541   1.046       .  S
N1537      H1542   1.046       .  S
N1540      H1543   1.044       .  S
N1540      H1544   1.045       .  S
C1545      C1546   1.399       .  A
C1545      C1550   1.404       .  A
C1545      H1552   1.085       .  S
C1546      C1547   1.411       .  A
C1547      C1548   1.395       .  A
C1547      N1554   1.432       .  S
C1548      C1549   1.405       .  A
C1548      H1553   1.084       .  S
C1549      C1550   1.420       .  A
C1550      N1551   1.438       .  S
N1551      H1555   1.046       .  S
N1551      H1556   1.044       .  S
N1554      H1557   1.043       .  S
N1554      H1558   1.044       .  S
C1559      C1560   1.409   1_655  A
C1559      C1564   1.417   1_565  A
C1559      H1566   1.083       .  S
C1560      C1561   1.419   1_565  A
C1561      C1562   1.413       .  A
C1561      N1568   1.433       .  S
C1562      C1563   1.407       .  A
C1562      H1567   1.083       .  S
C1563      C1564   1.419   1_455  A
C1564      N1565   1.432   1_545  S
N1565      H1569   1.046   1_655  S
N1565      H1570   1.046       .  S
N1568      H1571   1.046       .  S
N1568      H1572   1.045       .  S
C1573      C1574   1.406       .  A
C1573      C1578   1.412       .  A
C1573      H1580   1.083       .  S
C1574      C1575   1.416       .  A
C1575      C1576   1.418       .  A
C1575      N1582   1.438       .  S
C1576      C1577   1.405       .  A
C1576      H1581   1.081       .  S
C1577      C1578   1.412       .  A
C1578      N1579   1.433       .  S
N1579      H1583   1.046       .  S
N1579      H1584   1.046   1_455  S
N1582      H1585   1.046       .  S
N1582      H1586   1.046       .  S
C1587      C1588   1.398       .  A
C1587      C1592   1.398       .  A
C1587      H1594   1.084       .  S
C1588      C1589   1.408       .  A
C1589      C1590   1.400       .  A
C1589      N1596   1.433       .  S
C1590      C1591   1.405       .  A
C1590      H1595   1.084       .  S
C1591      C1592   1.417       .  A
C1592      N1593   1.432       .  S
N1593      H1597   1.046       .  S
N1593      H1598   1.045       .  S
N1596      H1599   1.046       .  S
N1596      H1600   1.046       .  S
C1601      C1602   1.406       .  A
C1601      C1606   1.398       .  A
C1601      H1608   1.084       .  S
C1602      C1603   1.413       .  A
C1603      C1604   1.404       .  A
C1603      N1610   1.438       .  S
C1604      C1605   1.403       .  A
C1604      H1609   1.084       .  S
C1605      C1606   1.417       .  A
C1606      N1607   1.439       .  S
N1607      H1611   1.044       .  S
N1607      H1612   1.041       .  S
N1610      H1613   1.046       .  S
N1610      H1614   1.046       .  S
C1615      C1616   1.402       .  A
C1615      C1620   1.398       .  A
C1615      H1622   1.084       .  S
C1616      C1617   1.414       .  A
C1617      C1618   1.396       .  A
C1617      N1624   1.440       .  S
C1618      C1619   1.396       .  A
C1618      H1623   1.084       .  S
C1619      C1620   1.412       .  A
C1620      N1621   1.432       .  S
N1621      H1625   1.045       .  S
N1621      H1626   1.045       .  S
N1624      H1627   1.046       .  S
N1624      H1628   1.046       .  S
C1629      C1630   1.406       .  A
C1629      C1634   1.395       .  A
C1629      H1636   1.083       .  S
C1630      C1631   1.413       .  A
C1631      C1632   1.404       .  A
C1631      N1638   1.438       .  S
C1632      C1633   1.404       .  A
C1632      H1637   1.084       .  S
C1633      C1634   1.406       .  A
C1634      N1635   1.434       .  S
N1635      H1639   1.046       .  S
N1635      H1640   1.045       .  S
N1638      H1641   1.046       .  S
N1638      H1642   1.046       .  S
C1643      C1644   1.407       .  A
C1643      C1648   1.409       .  A
C1643      H1650   1.085       .  S
C1644      C1645   1.412       .  A
C1645      C1646   1.410       .  A
C1645      N1652   1.431       .  S
C1646      C1647   1.408       .  A
C1646      H1651   1.084       .  S
C1647      C1648   1.416       .  A
C1648      N1649   1.437       .  S
N1649      H1653   1.045       .  S
N1649      H1654   1.045       .  S
N1652      H1655   1.045       .  S
N1652      H1656   1.044       .  S
C1657      C1662   1.403       .  A
C1657      H1664   1.084       .  S
C1658      C1659   1.411       .  A
C1659      C1660   1.403       .  A
C1659      N1666   1.433       .  S
C1660      C1661   1.408       .  A
C1660      H1665   1.083       .  S
C1662      N1663   1.432   1_554  S
N1663      H1667   1.046   1_556  S
N1663      H1668   1.046       .  S
N1666      H1669   1.046       .  S
N1666      H1670   1.046       .  S
C1671      C1672   1.410       .  A
C1671      C1676   1.402       .  A
C1671      H1678   1.083       .  S
C1672      C1673   1.409       .  A
C1673      C1674   1.401       .  A
C1673      N1680   1.432       .  S
C1674      C1675   1.406       .  A
C1674      H1679   1.084       .  S
C1675      C1676   1.409       .  A
C1676      N1677   1.438       .  S
N1677      H1681   1.046       .  S
N1677      H1682   1.045       .  S
N1680      H1683   1.045       .  S
N1680      H1684   1.046       .  S
C1685      C1686   1.409       .  A
C1685      C1690   1.414       .  A
C1685      H1692   1.083       .  S
C1686      C1687   1.428       .  A
C1687      C1688   1.410       .  A
C1687      N1694   1.432       .  S
C1688      C1689   1.407       .  A
C1688      H1693   1.083       .  S
C1689      C1690   1.419       .  A
C1690      N1691   1.432       .  S
N1691      H1695   1.046       .  S
N1691      H1696   1.045       .  S
N1694      H1697   1.045       .  S
N1694      H1698   1.045       .  S
C1699      C1700   1.404       .  A
C1699      C1704   1.397       .  A
C1699      H1706   1.084       .  S
C1700      C1701   1.405       .  A
C1701      C1702   1.396       .  A
C1701      N1708   1.433       .  S
C1702      C1703   1.405       .  A
C1702      H1707   1.084       .  S
C1703      C1704   1.407       .  A
C1704      N1705   1.433       .  S
N1705      H1709   1.046       .  S
N1705      H1710   1.046       .  S
N1708      H1711   1.046       .  S
N1708      H1712   1.046       .  S
C1713      C1714   1.405       .  A
C1713      C1718   1.392       .  A
C1713      H1720   1.083       .  S
C1714      C1715   1.414       .  A
C1715      C1716   1.399       .  A
C1715      N1722   1.438       .  S
C1716      C1717   1.400       .  A
C1716      H1721   1.083       .  S
C1717      C1718   1.411       .  A
C1718      N1719   1.433       .  S
N1719      H1723   1.045       .  S
N1719      H1724   1.045       .  S
N1722      H1725   1.046       .  S
N1722      H1726   1.045       .  S
C1727      C1728   1.407       .  A
C1728      C1729   1.420   1_565  A
C1729      C1730   1.415       .  A
C1729      N1736   1.432       .  S
C1730      C1731   1.408       .  A
C1730      H1735   1.083       .  S
C1732      N1733   1.433       .  S
N1733      H1737   1.045   1_545  S
N1733      H1738   1.046   1_545  S
N1736      H1739   1.046       .  S
N1736      H1740   1.046       .  S
C1741      C1742   1.409       .  A
C1741      C1746   1.417       .  A
C1741      H1748   1.084       .  S
C1742      C1743   1.410       .  A
C1743      C1744   1.415       .  A
C1743      N1750   1.437       .  S
C1744      C1745   1.408       .  A
C1744      H1749   1.084       .  S
C1745      C1746   1.411       .  A
C1746      N1747   1.438       .  S
N1747      H1751   1.045       .  S
N1747      H1752   1.045       .  S
N1750      H1753   1.045       .  S
N1750      H1754   1.046       .  S
C1755      C1756   1.403       .  A
C1755      H1762   1.084       .  S
C1757      C1758   1.406       .  A
C1757      N1764   1.438       .  S
C1758      C1759   1.408       .  A
C1758      H1763   1.083       .  S
C1759      C1760   1.410       .  A
C1760      N1761   1.433       .  S
N1761      H1765   1.046       .  S
N1761      H1766   1.046       .  S
N1764      H1768   1.046       .  S
C1769      C1770   1.401       .  A
C1769      C1774   1.400       .  A
C1769      H1776   1.084       .  S
C1770      C1771   1.416       .  A
C1771      C1772   1.395       .  A
C1771      N1778   1.434       .  S
C1772      C1773   1.405       .  A
C1772      H1777   1.084       .  S
C1773      C1774   1.416       .  A
C1774      N1775   1.432       .  S
N1775      H1779   1.046       .  S
N1775      H1780   1.046       .  S
N1778      H1781   1.045       .  S
N1778      H1782   1.044       .  S
C1783      C1784   1.404       .  A
C1783      C1788   1.401       .  A
C1783      H1790   1.084       .  S
C1784      C1785   1.409       .  A
C1785      C1786   1.400       .  A
C1785      N1792   1.439       .  S
C1786      C1787   1.405       .  A
C1786      H1791   1.083       .  S
C1787      C1788   1.410       .  A
C1788      N1789   1.438       .  S
N1789      H1793   1.046   1_565  S
N1789      H1794   1.046       .  S
N1792      H1795   1.045       .  S
N1792      H1796   1.046       .  S
C1797      C1798   1.397       .  A
C1797      C1802   1.399       .  A
C1797      H1804   1.084       .  S
C1798      C1799   1.412       .  A
C1799      C1800   1.399       .  A
C1799      N1806   1.433       .  S
C1800      C1801   1.402       .  A
C1800      H1805   1.083       .  S
C1801      C1802   1.415       .  A
C1802      N1803   1.439       .  S
N1803      H1807   1.046       .  S
N1803      H1808   1.046       .  S
N1806      H1809   1.046       .  S
N1806      H1810   1.045       .  S
C1811      C1812   1.403       .  A
C1811      C1816   1.401       .  A
C1811      H1818   1.084       .  S
C1812      C1813   1.408       .  A
C1813      C1814   1.403       .  A
C1813      N1820   1.431       .  S
C1814      C1815   1.408       .  A
C1814      H1819   1.084       .  S
C1815      C1816   1.417       .  A
C1816      N1817   1.438       .  S
N1817      H1821   1.046   1_565  S
N1817      H1822   1.045       .  S
N1820      H1823   1.045       .  S
N1820      H1824   1.046       .  S
C1825      C1830   1.401       .  A
C1825      H1832   1.084   1_556  S
C1826      C1827   1.414       .  A
C1827      C1828   1.400       .  A
C1827      N1834   1.432       .  S
C1828      H1833   1.084       .  S
C1829      C1830   1.411       .  A
C1830      N1831   1.432       .  S
N1831      H1835   1.046       .  S
N1831      H1836   1.046       .  S
N1834      H1837   1.046       .  S
N1834      H1838   1.045       .  S
C1839      C1840   1.403       .  A
C1839      C1844   1.408       .  A
C1839      H1846   1.084       .  S
C1840      C1841   1.413       .  A
C1841      C1842   1.413       .  A
C1841      N1848   1.432       .  S
C1842      C1843   1.404       .  A
C1842      H1847   1.084       .  S
C1843      C1844   1.420       .  A
C1844      N1845   1.433       .  S
N1845      H1849   1.044   1_545  S
N1845      H1850   1.045       .  S
N1848      H1851   1.045       .  S
N1848      H1852   1.046   1_545  S
C1853      C1854   1.405       .  A
C1853      C1858   1.394       .  A
C1853      H1860   1.084       .  S
C1854      C1855   1.420       .  A
C1855      C1856   1.404       .  A
C1856      C1857   1.399       .  A
C1856      H1861   1.084       .  S
C1857      C1858   1.406       .  A
C1858      N1859   1.433       .  S
N1859      H1863   1.046       .  S
N1859      H1864   1.046       .  S
N1862      H1865   1.046       .  S
C1867      C1868   1.401       .  A
C1867      C1872   1.401       .  A
C1867      H1874   1.084       .  S
C1868      C1869   1.419       .  A
C1869      C1870   1.393       .  A
C1869      N1876   1.433       .  S
C1870      C1871   1.399       .  A
C1870      H1875   1.084       .  S
C1871      C1872   1.413       .  A
C1872      N1873   1.437       .  S
N1873      H1877   1.046       .  S
N1873      H1878   1.045       .  S
N1876      H1879   1.043   1_565  S
N1876      H1880   1.044       .  S
C1881      C1882   1.407       .  A
C1881      C1886   1.399       .  A
C1881      H1888   1.084       .  S
C1882      C1883   1.415       .  A
C1883      C1884   1.402       .  A
C1883      N1890   1.438       .  S
C1884      C1885   1.402       .  A
C1884      H1889   1.084       .  S
C1885      C1886   1.407       .  A
C1886      N1887   1.439       .  S
N1887      H1891   1.046       .  S
N1887      H1892   1.045       .  S
N1890      H1893   1.046       .  S
N1890      H1894   1.046       .  S
C1895      C1896   1.408       .  A
C1895      C1900   1.399       .  A
C1895      H1902   1.084       .  S
C1896      C1897   1.414       .  A
C1897      C1898   1.401       .  A
C1897      N1904   1.432       .  S
C1898      C1899   1.403       .  A
C1898      H1903   1.084       .  S
C1899      C1900   1.413       .  A
C1900      N1901   1.431       .  S
N1901      H1905   1.043       .  S
N1901      H1906   1.047       .  S
N1904      H1907   1.046       .  S
N1904      H1908   1.045       .  S
C1909      C1910   1.410       .  A
C1909      C1914   1.418       .  A
C1909      H1916   1.083       .  S
C1910      C1911   1.419       .  A
C1911      C1912   1.415       .  A
C1911      N1918   1.438       .  S
C1912      C1913   1.408       .  A
C1912      H1917   1.083   1_545  S
C1913      C1914   1.419       .  A
C1914      N1915   1.438       .  S
N1915      H1919   1.046       .  S
N1915      H1920   1.046   1_545  S
N1918      H1921   1.046       .  S
N1918      H1922   1.046   1_545  S
C1923      C1924   1.401       .  A
C1923      C1928   1.391       .  A
C1923      H1930   1.082       .  S
C1924      C1925   1.409       .  A
C1925      C1926   1.402       .  A
C1925      N1932   1.438       .  S
C1926      C1927   1.405       .  A
C1926      H1931   1.084       .  S
C1927      C1928   1.414       .  A
C1928      N1929   1.433       .  S
N1929      H1933   1.045       .  S
N1929      H1934   1.045       .  S
N1932      H1935   1.046       .  S
N1932      H1936   1.046       .  S
C1937      C1938   1.405       .  A
C1937      C1942   1.403       .  A
C1937      H1944   1.084       .  S
C1938      C1939   1.414       .  A
C1939      C1940   1.392       .  A
C1939      N1946   1.432       .  S
C1940      C1941   1.402       .  A
C1940      H1945   1.082       .  S
C1941      C1942   1.410       .  A
C1942      N1943   1.438       .  S
N1943      H1947   1.046       .  S
N1943      H1948   1.046       .  S
N1946      H1949   1.044       .  S
N1946      H1950   1.045       .  S
C1951      C1952   1.405       .  A
C1951      C1956   1.403       .  A
C1951      H1958   1.083       .  S
C1952      C1953   1.417       .  A
C1953      C1954   1.396       .  A
C1953      N1960   1.432       .  S
C1954      C1955   1.397       .  A
C1954      H1959   1.084       .  S
C1955      C1956   1.412       .  A
C1956      N1957   1.438       .  S
N1957      H1961   1.046       .  S
N1957      H1962   1.045       .  S
N1960      H1963   1.046       .  S
N1960      H1964   1.045       .  S
C1965      C1970   1.403       .  A
C1965      H1972   1.084       .  S
C1966      C1967   1.411       .  A
C1967      C1968   1.397       .  A
C1967      N1974   1.433       .  S
C1968      C1969   1.402       .  A
C1968      H1973   1.084       .  S
C1970      N1971   1.438   1_554  S
N1971      H1975   1.046       .  S
N1971      H1976   1.045       .  S
N1974      H1977   1.046       .  S
N1974      H1978   1.046       .  S
C1979      C1984   1.418   1_654  A
C1979      H1986   1.084   1_554  S
C1980      C1981   1.425   1_655  A
C1981      C1982   1.410       .  A
C1981      N1988   1.439       .  S
C1982      C1983   1.405       .  A
C1982      H1987   1.081       .  S
C1984      N1985   1.437   1_455  S
N1985      H1989   1.048   1_665  S
N1985      H1990   1.042       .  S
N1988      H1991   1.045       .  S
N1988      H1992   1.045   1_455  S
C1993      C1994   1.408       .  A
C1993      C1998   1.413       .  A
C1993      H2000   1.084       .  S
C1994      C1995   1.409       .  A
C1995      C1996   1.411       .  A
C1995      N2002   1.432       .  S
C1996      C1997   1.407       .  A
C1996      H2001   1.084       .  S
C1997      C1998   1.418       .  A
C1998      N1999   1.437       .  S
N1999      H2003   1.045       .  S
N1999      H2004   1.045       .  S
N2002      H2005   1.045   1_545  S
N2002      H2006   1.045       .  S
C2007      C2008   1.406       .  A
C2007      C2012   1.394       .  A
C2007      H2014   1.084       .  S
C2009      C2010   1.402   1_554  A
C2009      N2016   1.432       .  S
C2010      C2011   1.409       .  A
C2010      H2015   1.084       .  S
C2012      N2013   1.431       .  S
N2013      H2017   1.046       .  S
N2013      H2018   1.044       .  S
N2016      H2019   1.045   1_554  S
N2016      H2020   1.046       .  S
C2021      C2022   1.403       .  A
C2021      C2026   1.401       .  A
C2021      H2028   1.084       .  S
C2022      C2023   1.403       .  A
C2023      C2024   1.400       .  A
C2023      N2030   1.438       .  S
C2024      C2025   1.411       .  A
C2024      H2029   1.083       .  S
C2025      C2026   1.413       .  A
C2026      N2027   1.438       .  S
N2027      H2031   1.044       .  S
N2027      H2032   1.046       .  S
N2030      H2033   1.047       .  S
N2030      H2034   1.044       .  S
C2035      C2036   1.406       .  A
C2035      C2040   1.398       .  A
C2035      H2042   1.083       .  S
C2036      C2037   1.414       .  A
C2037      C2038   1.404       .  A
C2037      N2044   1.438       .  S
C2038      C2039   1.402       .  A
C2038      H2043   1.084       .  S
C2039      C2040   1.404       .  A
C2040      N2041   1.433       .  S
N2041      H2045   1.045       .  S
N2041      H2046   1.046       .  S
N2044      H2047   1.045       .  S
N2044      H2048   1.046   1_655  S
