geometry optimzed in LAMMPS
_audit_creation_date              2020-12-01 
_audit_creation_method            'lammps2cif' 
_symmetry_space_group_name_H-M    'P1' 
_symmetry_Int_Tables_number       1 
_symmetry_cell_setting            triclinic 
loop_ 
_symmetry_equiv_pos_as_xyz 
  x,y,z 
_cell_length_a                    37.33352467 
_cell_length_b                    37.20173138391911 
_cell_length_c                    76.56325659597123 
_cell_angle_alpha                 89.69432030661808 
_cell_angle_beta                  90.7630386838249 
_cell_angle_gamma                 89.87855167778932 
loop_ 
_atom_site_label 
_atom_site_type_symbol 
_atom_site_fract_x 
_atom_site_fract_y 
_atom_site_fract_z 
_atom_site_charge 
Zr1        Zr  0.15427159  0.99077436  0.55345227     2.17500
O2          O  0.15888064  0.05358085  0.54463020    -0.52100
O3          O  0.20488639  0.98870429  0.53355777    -0.75300
O4          O  0.18278790  0.02756638  0.57889855    -0.82100
O5          O  0.10783659  0.96038791  0.51326996    -0.83800
O6          O  0.18316778  0.99312057  0.60354709    -0.79500
O7          O  0.10738911  0.00808521  0.53079827    -0.91100
O8          O  0.22907813  0.93255020  0.53544764    -0.77100
O9          O  0.18795276  0.94896894  0.57107315    -0.86600
O10         O  0.15664217  0.93461150  0.53749363    -0.86200
O11         O  0.12194829  0.98327657  0.58006514    -0.73000
O12         O  0.09562532  0.96597347  0.54838042    -0.85100
Zr13       Zr  0.09940963  0.86419253  0.57623866     2.26400
Zr14       Zr  0.15352824  0.93852360  0.59704432     2.06300
Zr15       Zr  0.09799518  0.90992716  0.53250545     2.10000
Zr16       Zr  0.19229428  0.89502018  0.55450782     1.78800
O17         O  0.03988502  0.92504534  0.51962376    -0.93900
O18         O  0.24923277  0.89404935  0.57042682    -0.41700
O19         O  0.13342090  0.86994531  0.54992506    -0.78400
O20         O  0.16001106  0.88402710  0.58113634    -0.97100
O21         O  0.09412997  0.91885704  0.59199098    -0.90400
O22         O  0.06546255  0.90537194  0.55865172    -0.93200
C23         C  0.22735005  0.96446914  0.52892276     1.00500
C24         C  0.09616379  0.99165950  0.51678995     1.13500
C25         C  0.19060183  0.02211509  0.59554263     1.04300
O26         O  0.20962498  0.91759460  0.61008550    -0.95400
O27         O  0.13434071  0.89811914  0.62002370    -0.91100
O28         O  0.10568316  0.85119681  0.60738823    -0.84300
C29         C  0.11816029  0.86786101  0.62082378     1.10900
O30         O  0.04357585  0.02351426  0.57242937    -0.97300
Zr31       Zr  0.06327250  0.96111957  0.57418042     1.88900
O32         O  0.03897066  0.86362416  0.58744774    -0.74000
O33         O  0.13234458  0.96596111  0.62395545    -0.53300
O34         O  0.05940208  0.98748792  0.60313761    -0.97900
O35         O  0.00999994  0.97833124  0.55736928    -0.55100
O36         O  0.01921908  0.92133295  0.58473367    -0.74500
C37         C  0.01555123  0.88855657  0.58926011     0.97800
O38         O  0.12018435  0.80247579  0.58010454    -0.63300
O39         O  0.12114123  0.88375560  0.50568964    -0.58100
O40         O  0.06884409  0.82303952  0.55635448    -0.94800
O41         O  0.06671619  0.85049294  0.52972900    -0.93200
O42         O  0.20188048  0.86200936  0.52753641    -0.93600
O43         O  0.21601487  0.83458200  0.55891354    -0.92400
C44         C  0.05961683  0.82380600  0.54011803     1.16700
H45         H  0.16605612  0.93727297  0.52592551     0.32600
H46         H  0.17282941  0.86660717  0.58824200     0.43500
H47         H  0.04194410  0.89643344  0.55596219     0.37000
H48         H  0.12011805  0.00565804  0.58631955     0.33500
H49         H  0.25593207  0.91963547  0.57177129     0.25300
H50         H  0.15379488  0.96874093  0.63157521     0.31200
H51         H  0.03637325  0.00071452  0.60324621     0.37100
H52         H  0.19876549  0.87988059  0.51799853     0.31600
H53         H  0.10778920  0.86108342  0.50391598     0.30500
H54         H  0.03874311  0.91119135  0.50862958     0.32100
H55         H  0.99552116  0.95615889  0.55648949     0.31100
H56         H  0.19616413  0.82106443  0.56430743     0.35100
H57         H  0.14411400  0.80455878  0.58573846     0.27800
H58         H  0.18491387  0.05852273  0.54439237     0.32100
H59         H  0.06602865  0.03758366  0.57191298     0.34900
H60         H  0.11235222  0.89967933  0.49616032     0.27500
H61         H  0.10476946  0.79211623  0.58924506     0.40400
H62         H  0.21243167  0.93201346  0.62084909     0.30500
H63         H  0.24313496  0.88599011  0.58236139     0.38100
H64         H  0.01874335  0.98222001  0.54535951     0.29900
H65         H  0.12502127  0.99079139  0.62081779     0.30000
H66         H  0.14996126  0.06747554  0.55467771     0.30200
Zr67       Zr  0.28725583  0.14262763  0.69453923     2.17500
O68         O  0.22268639  0.14658586  0.69828535    -0.52100
O69         O  0.27991293  0.09083672  0.71428360    -0.75300
O70         O  0.25327701  0.11366712  0.66816900    -0.82100
O71         O  0.31748337  0.19027140  0.73502569    -0.83800
O72         O  0.29110230  0.10757051  0.64531748    -0.79500
O73         O  0.27133517  0.19109891  0.71591383    -0.91100
O74         O  0.33285236  0.06029344  0.71496973    -0.77100
O75         O  0.32685679  0.10401365  0.67927852    -0.86600
O76         O  0.33992757  0.13398550  0.71304793    -0.86200
O77         O  0.30189997  0.17384802  0.66817386    -0.73000
O78         O  0.31766575  0.19929479  0.69972971    -0.85100
Zr79       Zr  0.42308607  0.17998735  0.67682800     2.26400
Zr80       Zr  0.34453943  0.13590319  0.65360091     2.06300
Zr81       Zr  0.37117027  0.18995553  0.71777179     2.10000
Zr82       Zr  0.37698944  0.09291996  0.69798518     1.78800
O83         O  0.36906074  0.24348224  0.73595605    -0.93900
O84         O  0.36266994  0.03644614  0.68347520    -0.41700
O85         O  0.40888821  0.14836670  0.70321659    -0.78400
O86         O  0.39594240  0.12222380  0.67149367    -0.97100
O87         O  0.37133766  0.19101497  0.65915844    -0.90400
O88         O  0.38451225  0.22110846  0.69154078    -0.93200
C89         C  0.30022376  0.06485171  0.71960936     1.00500
C90         C  0.28736229  0.20304282  0.72990767     1.13500
C91         C  0.26082041  0.10304265  0.65222357     1.04300
O92         O  0.36264239  0.08025299  0.63961178    -0.95400
O93         O  0.38718055  0.15636702  0.63231738    -0.91100
O94         O  0.43852529  0.16941216  0.64679684    -0.84300
C95         C  0.42006958  0.16582049  0.63269660     1.10900
O96         O  0.27684556  0.24141130  0.65739715    -0.97300
Zr97       Zr  0.33207491  0.22974645  0.67381236     1.88900
O98         O  0.43209733  0.23927750  0.66443863    -0.74000
O99         O  0.31709209  0.16359160  0.62769512    -0.53300
O100        O  0.32125114  0.28829547  0.66023637    -0.97900
O101        O  0.33231492  0.27921618  0.69472069    -0.55100
O102        O  0.37961810  0.22900023  0.65338748    -0.74500
C103        C  0.40643727  0.24949990  0.65459524     0.97800
O104        O  0.48451552  0.15775629  0.67652338    -0.63300
O105        O  0.39646112  0.15625978  0.74240098    -0.58100
O106        O  0.46230894  0.21054576  0.69690848    -0.94800
O107        O  0.42996069  0.22219096  0.72114965    -0.93200
O108        O  0.40664396  0.07809926  0.72565065    -0.93600
O109        O  0.43267646  0.05973319  0.69406304    -0.92400
C110        C  0.45878526  0.22492425  0.71191587     1.16700
H111        H  0.33395855  0.12505887  0.72447308     0.32600
H112        H  0.41221072  0.10696474  0.66517814     0.43500
H113        H  0.39625122  0.24374154  0.69375798     0.37000
H114        H  0.28060865  0.17702083  0.66108313     0.33500
H115        H  0.37401476  0.03818352  0.67189680     0.25300
H116        H  0.31366623  0.14390977  0.61919347     0.31200
H117        H  0.34391039  0.30179062  0.66164308     0.37100
H118        H  0.42762534  0.09429838  0.72632003     0.31600
H119        H  0.40585830  0.17484221  0.75044845     0.30500
H120        H  0.36902618  0.23434100  0.74812602     0.32100
H121        H  0.35527371  0.29198980  0.69306029     0.31100
H122        H  0.44908897  0.07708177  0.68848298     0.35100
H123        H  0.48390870  0.13633329  0.66891484     0.27800
H124        H  0.21408388  0.12147944  0.69748942     0.32100
H125        H  0.25835358  0.24480125  0.66637925     0.34900
H126        H  0.37552634  0.14611350  0.74849441     0.27500
H127        H  0.49791057  0.17600230  0.66979191     0.40400
H128        H  0.34685397  0.07829198  0.62916312     0.30500
H129        H  0.37656290  0.01774019  0.68986621     0.38100
H130        H  0.33467502  0.26782971  0.70638979     0.29900
H131        H  0.29257005  0.17085068  0.63097023     0.30000
H132        H  0.21358749  0.15839140  0.68747741     0.30200
Zr133      Zr  0.39955192  0.50139338  0.54604266     2.17500
O134        O  0.39536144  0.56629322  0.54205079    -0.52100
O135        O  0.34909930  0.50554055  0.52456636    -0.75300
O136        O  0.44165930  0.52050022  0.52251397    -0.82100
O137        O  0.37318475  0.50280115  0.59643848    -0.83800
O138        O  0.44230067  0.47079651  0.50643716    -0.79500
O139        O  0.37916473  0.53946871  0.57293815    -0.91100
O140        O  0.32217703  0.45094352  0.52202198    -0.77100
O141        O  0.39475437  0.44819945  0.52799928    -0.86600
O142        O  0.35717325  0.46139152  0.55894555    -0.86200
O143        O  0.45867019  0.47213178  0.54388304    -0.73000
O144        O  0.42532850  0.48485223  0.57395949    -0.85100
Zr145      Zr  0.43566314  0.36702085  0.56567093     2.26400
Zr146      Zr  0.45268341  0.41929016  0.52526545     2.06300
Zr147      Zr  0.38345660  0.44330749  0.58627335     2.10000
Zr148      Zr  0.35230424  0.40917259  0.54097025     1.78800
O149        O  0.37497999  0.45506323  0.61721300    -0.93900
O150        O  0.34349606  0.37825401  0.51327228    -0.41700
O151        O  0.37647674  0.39113540  0.56866898    -0.78400
O152        O  0.40936016  0.38033302  0.53786750    -0.97100
O153        O  0.47829392  0.40572897  0.55291004    -0.90400
O154        O  0.44198118  0.41763228  0.58454445    -0.93200
C155        C  0.32566855  0.48395689  0.51781319     1.00500
C156        C  0.37192206  0.53403864  0.58962379     1.13500
C157        C  0.45488441  0.50183776  0.50988192     1.04300
O158        O  0.44085549  0.39658749  0.49597133    -0.95400
O159        O  0.47777391  0.35667647  0.52172348    -0.91100
O160        O  0.46489866  0.32521817  0.54633137    -0.84300
C161        C  0.47861596  0.32737768  0.53109318     1.10900
O162        O  0.50458553  0.51788487  0.57542946    -0.97300
Zr163      Zr  0.48302235  0.45671833  0.57145984     1.88900
O164        O  0.49438414  0.35396059  0.57666393    -0.74000
O165        O  0.51481427  0.43010794  0.51745187    -0.53300
O166        O  0.54076361  0.46739136  0.55790922    -0.97900
O167        O  0.49451858  0.47189684  0.60196771    -0.55100
O168        O  0.52098796  0.40795413  0.58119512    -0.74500
C169        C  0.52033793  0.37354204  0.58184572     0.97800
O170        O  0.41062819  0.30667019  0.56699791    -0.63300
O171        O  0.31924531  0.43209409  0.58639617    -0.58100
O172        O  0.42254832  0.35156950  0.59522623    -0.94800
O173        O  0.39197843  0.39722092  0.60802948    -0.93200
O174        O  0.29210536  0.41405691  0.55262970    -0.93600
O175        O  0.32323462  0.35114985  0.54487146    -0.92400
C176        C  0.40663456  0.36622910  0.60804093     1.16700
H177        H  0.33431692  0.47337051  0.56033428     0.32600
H178        H  0.40663098  0.35868206  0.53105550     0.43500
H179        H  0.45214412  0.41144292  0.59587031     0.37000
H180        H  0.47783769  0.48712416  0.53989268     0.33500
H181        H  0.31768960  0.38120984  0.51045380     0.25300
H182        H  0.51433999  0.43300054  0.50459797     0.31200
H183        H  0.55823935  0.46753143  0.56775896     0.37100
H184        H  0.27594040  0.40795707  0.54272801     0.31600
H185        H  0.31586880  0.41409164  0.59578752     0.30500
H186        H  0.34895646  0.45229275  0.61916959     0.32100
H187        H  0.50699741  0.45077645  0.60711324     0.31100
H188        H  0.34303480  0.33341103  0.54466484     0.35100
H189        H  0.42593281  0.29343288  0.57552219     0.27800
H190        H  0.38782780  0.56975121  0.52969898     0.32100
H191        H  0.48259486  0.53261492  0.57646541     0.34900
H192        H  0.30864168  0.45450231  0.59100441     0.27500
H193        H  0.38729021  0.30944781  0.57283642     0.40400
H194        H  0.41964324  0.38090850  0.49721077     0.30500
H195        H  0.35578259  0.39353173  0.50459707     0.38100
H196        H  0.47064422  0.47188096  0.60744494     0.29900
H197        H  0.52067082  0.45423093  0.52202753     0.30000
H198        H  0.42036986  0.57500739  0.54260224     0.30200
Zr199      Zr  0.25803014  0.63967873  0.68748362     2.17500
O200        O  0.32269531  0.64390291  0.69161131    -0.52100
O201        O  0.26734142  0.58769164  0.70729108    -0.75300
O202        O  0.27173021  0.68217246  0.71237835    -0.82100
O203        O  0.26076449  0.60902411  0.63747468    -0.83800
O204        O  0.22097985  0.68328879  0.72783241    -0.79500
O205        O  0.29703678  0.62052163  0.66079922    -0.91100
O206        O  0.21336083  0.56022604  0.71055057    -0.77100
O207        O  0.20569278  0.63077569  0.70564725    -0.86600
O208        O  0.21961137  0.59588495  0.67393474    -0.86200
O209        O  0.22691850  0.69821792  0.69022276    -0.73000
O210        O  0.24237346  0.66255932  0.65879419    -0.85100
Zr211      Zr  0.12277795  0.66674656  0.66462765     2.26400
Zr212      Zr  0.17268733  0.68623729  0.70671525     2.06300
Zr213      Zr  0.20070657  0.61990576  0.64614309     2.10000
Zr214      Zr  0.16811160  0.58758712  0.69178960     1.78800
O215        O  0.22071097  0.59770763  0.61793468    -0.93900
O216        O  0.14140356  0.58224197  0.72057213    -0.41700
O217        O  0.14864801  0.60803122  0.66310667    -0.78400
O218        O  0.13370769  0.64290290  0.69350675    -0.97100
O219        O  0.17943825  0.67385275  0.67702099    -0.90400
O220        O  0.17377762  0.67922840  0.64695935    -0.93200
C221        C  0.24664831  0.56412888  0.71434009     1.00500
C222        C  0.29191263  0.61096133  0.64431660     1.13500
C223        C  0.25248284  0.69502647  0.72498747     1.04300
O224        O  0.15276048  0.66470408  0.73507370    -0.95400
O225        O  0.11105448  0.71479058  0.70724654    -0.91100
O226        O  0.08015848  0.69833687  0.68289880    -0.84300
C227        C  0.08197367  0.71443535  0.69766916     1.10900
O228        O  0.26501788  0.72042642  0.64384220    -0.97300
Zr229      Zr  0.21200040  0.71831479  0.66201583     1.88900
O230        O  0.11611389  0.73138361  0.66069708    -0.74000
O231        O  0.17658530  0.75134510  0.70958480    -0.53300
O232        O  0.24913727  0.76658601  0.67368347    -0.97900
O233        O  0.18948292  0.75490379  0.63764444    -0.55100
O234        O  0.16473827  0.75440955  0.67367162    -0.74500
C235        C  0.13381960  0.75814573  0.66674440     0.97800
O236        O  0.06914194  0.63146809  0.65883690    -0.63300
O237        O  0.17771303  0.55857573  0.64612590    -0.58100
O238        O  0.11115737  0.65937915  0.63363949    -0.94800
O239        O  0.16254542  0.63809765  0.62204293    -0.93200
O240        O  0.17608331  0.52594364  0.68191756    -0.93600
O241        O  0.11312440  0.55251583  0.68998151    -0.92400
C242        C  0.13107002  0.65151511  0.62064164     1.16700
H243        H  0.23232316  0.57345775  0.67247658     0.32600
H244        H  0.11187734  0.63959620  0.69994326     0.43500
H245        H  0.16932757  0.69228648  0.63627266     0.37000
H246        H  0.23994160  0.71840928  0.69475902     0.33500
H247        H  0.14043390  0.55605079  0.72291286     0.25300
H248        H  0.20246983  0.75679734  0.71044887     0.31200
H249        H  0.24871903  0.78533624  0.66445404     0.37100
H250        H  0.17533604  0.51103898  0.69266732     0.31600
H251        H  0.16713548  0.55512050  0.63433378     0.30500
H252        H  0.21938099  0.57112678  0.61838339     0.32100
H253        H  0.20529365  0.74935978  0.62773970     0.31100
H254        H  0.10138914  0.56034553  0.67891570     0.35100
H255        H  0.05188501  0.64880774  0.65362150     0.27800
H256        H  0.32717628  0.63662411  0.70389985     0.32100
H257        H  0.25763060  0.70880617  0.63276734     0.34900
H258        H  0.19928176  0.54299988  0.64641395     0.27500
H259        H  0.05947776  0.62616331  0.67055516     0.40400
H260        H  0.12627426  0.66457572  0.73413917     0.30500
H261        H  0.16000468  0.59116448  0.72879279     0.38100
H262        H  0.19565286  0.77991285  0.64085026     0.29900
H263        H  0.16758361  0.75623000  0.72144678     0.30000
H264        H  0.32795975  0.66998099  0.69129388     0.30200
Zr265      Zr  0.64489268  0.02514307  0.55158609     2.17500
O266        O  0.65117340  0.95996394  0.55031401    -0.52100
O267        O  0.69842992  0.01897138  0.53308293    -0.75300
O268        O  0.60512109  0.99919613  0.52868687    -0.82100
O269        O  0.67546023  0.03260270  0.60065427    -0.83800
O270        O  0.60528223  0.04796950  0.51232306    -0.79500
O271        O  0.66697231  0.99141729  0.57940867    -0.91100
O272        O  0.72203657  0.07413947  0.52768327    -0.77100
O273        O  0.64400494  0.07488030  0.53089812    -0.86600
O274        O  0.68533491  0.07013846  0.56219341    -0.86200
O275        O  0.58373390  0.05026520  0.54807010    -0.73000
O276        O  0.62043295  0.04443337  0.57887087    -0.85100
Zr277      Zr  0.60172726  0.15889054  0.56480575     2.26400
Zr278      Zr  0.58432297  0.10063758  0.52729469     2.06300
Zr279      Zr  0.65997613  0.09064576  0.58896513     2.10000
Zr280      Zr  0.68510937  0.11837617  0.54130679     1.78800
O281        O  0.66279717  0.08053069  0.62045219    -0.93900
O282        O  0.68661934  0.13392893  0.51036233    -0.41700
O283        O  0.66236467  0.13915988  0.56846645    -0.78400
O284        O  0.62642868  0.14366919  0.53743550    -0.97100
O285        O  0.56036878  0.11564431  0.55456198    -0.90400
O286        O  0.59980199  0.11190710  0.58624421    -0.93200
C287        C  0.72171065  0.04000389  0.52608202     1.00500
C288        C  0.67677742  0.00015236  0.59538457     1.13500
C289        C  0.59210215  0.01727642  0.51569889     1.04300
O290        O  0.58842211  0.11645001  0.49652180    -0.95400
O291        O  0.55617048  0.16223971  0.52198669    -0.91100
O292        O  0.57112467  0.19822928  0.54475329    -0.84300
C293        C  0.55532933  0.19297845  0.53012276     1.10900
O294        O  0.54921295  0.00435984  0.58165574    -0.97300
Zr295      Zr  0.56082309  0.06746337  0.57527988     1.88900
O296        O  0.54175322  0.16818198  0.57436347    -0.74000
O297        O  0.52210086  0.08540829  0.52082855    -0.53300
O298        O  0.50345348  0.04809464  0.56317375    -0.97900
O299        O  0.54841153  0.05754956  0.60614414    -0.55100
O300        O  0.51965535  0.11415096  0.58282789    -0.74500
C301        C  0.51782678  0.14829808  0.58112331     0.97800
O302        O  0.61932708  0.22164971  0.56178103    -0.63300
O303        O  0.72288082  0.10780964  0.59062606    -0.58100
O304        O  0.61687693  0.18225453  0.59256209    -0.94800
O305        O  0.64993951  0.14110027  0.60787942    -0.93200
O306        O  0.74545323  0.12966371  0.55235342    -0.93600
O307        O  0.70674242  0.17998761  0.53932277    -0.92400
C308        C  0.63364426  0.17115030  0.60611248     1.16700
H309        H  0.70901724  0.06039471  0.56402260     0.32600
H310        H  0.62728332  0.16426344  0.52970217     0.43500
H311        H  0.59013390  0.11974871  0.59715951     0.37000
H312        H  0.56568379  0.03309744  0.54456621     0.33500
H313        H  0.71235150  0.13698345  0.50778679     0.25300
H314        H  0.52053999  0.08359708  0.50795719     0.31200
H315        H  0.48767143  0.04597880  0.57342806     0.37100
H316        H  0.76118919  0.12612505  0.54219037     0.31600
H317        H  0.72568304  0.11972226  0.60209456     0.30500
H318        H  0.68674043  0.08910568  0.62425249     0.32100
H319        H  0.54169825  0.08132180  0.61085779     0.31100
H320        H  0.68512265  0.19511978  0.54067969     0.35100
H321        H  0.64524666  0.22201690  0.56461484     0.27800
H322        H  0.65635870  0.95446270  0.53795861     0.32100
H323        H  0.56764435  0.99106844  0.57509601     0.34900
H324        H  0.73618574  0.08490120  0.59192302     0.27500
H325        H  0.60774310  0.23471504  0.57142640     0.40400
H326        H  0.61408823  0.12186455  0.49480543     0.30500
H327        H  0.67971064  0.11157452  0.50421641     0.38100
H328        H  0.57208350  0.05226164  0.61154866     0.29900
H329        H  0.51868460  0.06067219  0.52525204     0.30000
H330        H  0.62683072  0.95036865  0.55225906     0.30200
Zr331      Zr  0.77141702  0.87574565  0.69363349     2.17500
O332        O  0.70695904  0.86818493  0.69654730    -0.52100
O333        O  0.76735918  0.92719864  0.71366520    -0.75300
O334        O  0.75965087  0.83453638  0.71903067    -0.82100
O335        O  0.75448809  0.88428513  0.64491163    -0.83800
O336        O  0.81295805  0.83282676  0.73277890    -0.79500
O337        O  0.73437204  0.90831736  0.66962936    -0.91100
O338        O  0.82164857  0.95486673  0.71378023    -0.77100
O339        O  0.82749717  0.88328268  0.70923970    -0.86600
O340        O  0.80637483  0.91750326  0.67733299    -0.86200
O341        O  0.80334731  0.81812356  0.69500035    -0.73000
O342        O  0.78095245  0.84781629  0.66572241    -0.85100
Zr343      Zr  0.90002743  0.84051610  0.66869229     2.26400
Zr344      Zr  0.85901433  0.82619346  0.71129981     2.06300
Zr345      Zr  0.81764070  0.88889163  0.64992135     2.10000
Zr346      Zr  0.86090647  0.92600084  0.69315532     1.78800
O347        O  0.79421667  0.88927112  0.62001171    -0.93900
O348        O  0.89875650  0.93914469  0.71850001    -0.41700
O349        O  0.87279180  0.89872614  0.66553365    -0.78400
O350        O  0.89300056  0.86993884  0.69598980    -0.97100
O351        O  0.86530415  0.79827485  0.68393594    -0.90400
O352        O  0.84662379  0.83175625  0.65172287    -0.93200
C353        C  0.78943333  0.95143487  0.71908593     1.00500
C354        C  0.73320022  0.90537805  0.65258904     1.13500
C355        C  0.78103807  0.82120233  0.73092048     1.04300
O356        O  0.88950091  0.84485441  0.73805175    -0.95400
O357        O  0.92072477  0.79764381  0.71139241    -0.91100
O358        O  0.94745194  0.81247596  0.68589651    -0.84300
C359        C  0.94781300  0.79673963  0.70082913     1.10900
O360        O  0.74836400  0.77316219  0.66610730    -0.97300
Zr361      Zr  0.81105646  0.79113428  0.66742623     1.88900
O362        O  0.90894196  0.77846665  0.66155954    -0.74000
O363        O  0.84829788  0.76547366  0.72200175    -0.53300
O364        O  0.79842161  0.73580962  0.68324226    -0.97900
O365        O  0.79568511  0.77958621  0.63686328    -0.55100
O366        O  0.85609027  0.75000209  0.65720679    -0.74500
C367        C  0.89038090  0.75102763  0.65734822     0.97800
O368        O  0.96085733  0.86279205  0.66495152    -0.63300
O369        O  0.81786775  0.95383117  0.64551991    -0.58100
O370        O  0.90879695  0.85303576  0.63852040    -0.94800
O371        O  0.86123445  0.88462352  0.62734029    -0.93200
O372        O  0.84954058  0.98422475  0.67931657    -0.93600
O373        O  0.91381034  0.96080595  0.68577451    -0.92400
C374        C  0.89228761  0.87046627  0.62644408     1.16700
H375        H  0.79364972  0.94003273  0.67592444     0.32600
H376        H  0.91596983  0.87361942  0.70161838     0.43500
H377        H  0.85101986  0.82137955  0.64041512     0.37000
H378        H  0.79021524  0.79915921  0.70042350     0.33500
H379        H  0.89130632  0.96341415  0.72229734     0.25300
H380        H  0.86772423  0.75075356  0.71701528     0.31200
H381        H  0.81580601  0.73565873  0.69311593     0.37100
H382        H  0.82697978  0.99314050  0.68438496     0.31600
H383        H  0.84079869  0.95889990  0.63966169     0.30500
H384        H  0.79872108  0.91368529  0.61532739     0.32100
H385        H  0.78174773  0.80094905  0.63301350     0.31100
H386        H  0.93384101  0.94334468  0.68643585     0.35100
H387        H  0.95797903  0.88864263  0.66210830     0.27800
H388        H  0.70247805  0.86676899  0.70925110     0.32100
H389        H  0.73564087  0.79156048  0.67298083     0.34900
H390        H  0.79933823  0.95859371  0.63645376     0.27500
H391        H  0.96970086  0.85173814  0.65409502     0.40400
H392        H  0.88965325  0.82312899  0.74558106     0.30500
H393        H  0.89008605  0.92279746  0.72776298     0.38100
H394        H  0.77812079  0.75969342  0.63695727     0.29900
H395        H  0.85397163  0.76642289  0.73465169     0.30000
H396        H  0.70212450  0.84369227  0.69213984     0.30200
Zr397      Zr  0.91027547  0.51407360  0.55450758     2.17500
O398        O  0.91987663  0.44947142  0.55217693    -0.52100
O399        O  0.85688286  0.50542854  0.53566737    -0.75300
O400        O  0.87877190  0.48145329  0.58027602    -0.82100
O401        O  0.97192142  0.55198447  0.51913906    -0.83800
O402        O  0.89592368  0.50571150  0.60615276    -0.79500
O403        O  0.95532456  0.49859787  0.53137683    -0.91100
O404        O  0.82344192  0.55639114  0.53797481    -0.77100
O405        O  0.87375362  0.54804464  0.57345886    -0.86600
O406        O  0.89276840  0.56692355  0.53769388    -0.86200
O407        O  0.94847231  0.52745047  0.57912548    -0.73000
O408        O  0.95588694  0.55494778  0.54978821    -0.85100
Zr409      Zr  0.94536862  0.64845644  0.57448383     2.26400
Zr410      Zr  0.91247752  0.56454317  0.59736796     2.06300
Zr411      Zr  0.94354827  0.60349945  0.53152920     2.10000
Zr412      Zr  0.85485379  0.59935850  0.55690304     1.78800
O413        O  0.97665996  0.61218330  0.50463054    -0.93900
O414        O  0.80482682  0.57944331  0.57454468    -0.41700
O415        O  0.90577706  0.63704635  0.54998085    -0.78400
O416        O  0.89140696  0.61668685  0.58182556    -0.97100
O417        O  0.96552963  0.59678210  0.59038088    -0.90400
O418        O  0.98166354  0.61533137  0.55504741    -0.93200
C419        C  0.82942327  0.52502950  0.53156533     1.00500
C420        C  0.97389221  0.51774489  0.52041892     1.13500
C421        C  0.87866502  0.48236206  0.59749011     1.04300
O422        O  0.85596514  0.57630943  0.61180135    -0.95400
O423        O  0.92649451  0.60689553  0.61977653    -0.91100
O424        O  0.94492221  0.65701767  0.60573783    -0.84300
C425        C  0.93757167  0.63920132  0.61963713     1.10900
O426        O  0.03126088  0.50581882  0.57490788    -0.97300
Zr427      Zr  0.99949343  0.56259249  0.57066253     1.88900
O428        O  0.00855737  0.66365664  0.57701325    -0.74000
O429        O  0.94201569  0.53459074  0.62204656    -0.53300
O430        O  0.02626263  0.55866817  0.59980772    -0.97900
O431        O  0.04269304  0.54750557  0.54830616    -0.55100
O432        O  0.04033858  0.61260619  0.57254255    -0.74500
C433        C  0.03812452  0.64670675  0.57477405     0.97800
O434        O  0.92009365  0.70721628  0.58140881    -0.63300
O435        O  0.89561387  0.61654686  0.51046332    -0.58100
O436        O  0.96428114  0.69509447  0.55466815    -0.94800
O437        O  0.97194985  0.66540051  0.52919340    -0.93200
O438        O  0.82562943  0.63357982  0.53348027    -0.93600
O439        O  0.81831325  0.65105671  0.56497657    -0.92400
C440        C  0.97566754  0.69373277  0.53898834     1.16700
H441        H  0.88296500  0.56158576  0.52634385     0.32600
H442        H  0.87750683  0.63126127  0.58964771     0.43500
H443        H  0.00154593  0.62761997  0.54969729     0.37000
H444        H  0.95564438  0.50571691  0.58525063     0.33500
H445        H  0.80529330  0.59481625  0.58504694     0.25300
H446        H  0.96655679  0.54467636  0.62240292     0.31200
H447        H  0.05225965  0.56235214  0.59808736     0.37100
H448        H  0.84124131  0.65465297  0.53150620     0.31600
H449        H  0.89837946  0.64235680  0.50762720     0.30500
H450        H  0.96514419  0.63301114  0.49870673     0.32100
H451        H  0.06635235  0.55006141  0.55418737     0.31100
H452        H  0.82797405  0.65935146  0.57635147     0.35100
H453        H  0.89942581  0.70217214  0.58900533     0.27800
H454        H  0.89569606  0.43884640  0.55332484     0.32100
H455        H  0.01254864  0.48703413  0.57501271     0.34900
H456        H  0.90239761  0.60377528  0.49967113     0.27500
H457        H  0.93801604  0.71887095  0.58917098     0.40400
H458        H  0.85706552  0.56151885  0.62258458     0.30500
H459        H  0.78307042  0.58703619  0.56793860     0.38100
H460        H  0.04151826  0.56795864  0.53999989     0.29900
H461        H  0.93042735  0.54387565  0.63266160     0.30000
H462        H  0.93259318  0.44264805  0.56313851     0.30200
Zr463      Zr  0.75899905  0.38654855  0.69555277     2.17500
O464        O  0.82290384  0.38254182  0.70215408    -0.52100
O465        O  0.76904969  0.43810322  0.71493594    -0.75300
O466        O  0.79515742  0.40885230  0.66890957    -0.82100
O467        O  0.72940607  0.33919894  0.73667990    -0.83800
O468        O  0.75715974  0.41602502  0.64573634    -0.79500
O469        O  0.77343631  0.33668870  0.71699660    -0.91100
O470        O  0.71759818  0.47106946  0.71509713    -0.77100
O471        O  0.72103705  0.42634987  0.67911252    -0.86600
O472        O  0.70771797  0.39941279  0.71365963    -0.86200
O473        O  0.74104661  0.35409215  0.66974508    -0.73000
O474        O  0.72548381  0.33318461  0.70238163    -0.85100
Zr475      Zr  0.62327843  0.35460429  0.67822856     2.26400
Zr476      Zr  0.70058527  0.39327171  0.65399970     2.06300
Zr477      Zr  0.67402912  0.34610194  0.72006779     2.10000
Zr478      Zr  0.67212712  0.44106067  0.69750785     1.78800
O479        O  0.67368827  0.29555151  0.74045079    -0.93900
O480        O  0.68273626  0.49501810  0.68013884    -0.41700
O481        O  0.63802430  0.38779717  0.70393877    -0.78400
O482        O  0.65150158  0.41066669  0.67174482    -0.97100
O483        O  0.67336122  0.33840279  0.66117006    -0.90400
O484        O  0.65937471  0.31327776  0.69462022    -0.93200
C485        C  0.74974707  0.46441146  0.72033611     1.00500
C486        C  0.75868666  0.32543009  0.73134367     1.13500
C487        C  0.78817014  0.41863648  0.65267921     1.04300
O488        O  0.68286116  0.44881701  0.63931896    -0.95400
O489        O  0.65243534  0.37616979  0.63404827    -0.91100
O490        O  0.60199390  0.37133003  0.64963621    -0.84300
C491        C  0.61866423  0.37068397  0.63520172     1.10900
O492        O  0.77250242  0.27934364  0.67366866    -0.97300
Zr493      Zr  0.71100088  0.29944090  0.67778062     1.88900
O494        O  0.61965434  0.30176808  0.66034604    -0.74000
O495        O  0.72364026  0.36670375  0.62725648    -0.53300
O496        O  0.72542334  0.26580135  0.65157255    -0.97900
O497        O  0.72114820  0.25419904  0.70050805    -0.55100
O498        O  0.66142291  0.26222395  0.67006625    -0.74500
C499        C  0.63568543  0.27152765  0.65999250     0.97800
O500        O  0.56254965  0.37904905  0.67686523    -0.63300
O501        O  0.65530249  0.38629510  0.74325357    -0.58100
O502        O  0.58356492  0.32302523  0.69743620    -0.94800
O503        O  0.61364005  0.31689776  0.72328764    -0.93200
O504        O  0.64039630  0.45749038  0.72394638    -0.93600
O505        O  0.61802515  0.47719816  0.69388909    -0.92400
C506        C  0.58580208  0.31182963  0.71321756     1.16700
H507        H  0.71421673  0.40822336  0.72507208     0.32600
H508        H  0.63528850  0.42609442  0.66521013     0.43500
H509        H  0.64679722  0.29154022  0.69759077     0.37000
H510        H  0.76159315  0.34835992  0.66273444     0.33500
H511        H  0.67733725  0.51524880  0.68804221     0.25300
H512        H  0.72921288  0.38691836  0.61929950     0.31200
H513        H  0.72220710  0.24018967  0.65478300     0.37100
H514        H  0.65500658  0.47649323  0.72954486     0.31600
H515        H  0.62892717  0.38769501  0.74196450     0.30500
H516        H  0.66827336  0.30617633  0.75194715     0.32100
H517        H  0.71437641  0.23114723  0.69496777     0.31100
H518        H  0.59920750  0.45973963  0.69052363     0.35100
H519        H  0.55862524  0.38972262  0.68850533     0.27800
H520        H  0.83316314  0.40551833  0.69799643     0.32100
H521        H  0.77290064  0.25360928  0.67704725     0.34900
H522        H  0.65941777  0.37251376  0.75419806     0.27500
H523        H  0.54603360  0.35829493  0.67624876     0.40400
H524        H  0.69126483  0.44593267  0.62719652     0.30500
H525        H  0.70902948  0.49606866  0.67872934     0.38100
H526        H  0.70229720  0.25850833  0.70921894     0.29900
H527        H  0.74710071  0.35577458  0.63039879     0.30000
H528        H  0.83207163  0.36419359  0.69401992     0.30200
Zr529      Zr  0.78110437  0.62929736  0.19717187     2.17500
O530        O  0.71772709  0.62509559  0.20407632    -0.52100
O531        O  0.78010353  0.57539619  0.21535839    -0.75300
O532        O  0.74543644  0.60313975  0.17074815    -0.82100
O533        O  0.81147530  0.66781823  0.23843620    -0.83800
O534        O  0.78000500  0.60549239  0.14655636    -0.79500
O535        O  0.76416776  0.67319668  0.22063758    -0.91100
O536        O  0.83571000  0.55027254  0.21455980    -0.77100
O537        O  0.82144871  0.59631510  0.17941370    -0.86600
O538        O  0.83661223  0.62203618  0.21386939    -0.86200
O539        O  0.79068725  0.66579495  0.17174314    -0.73000
O540        O  0.80820717  0.68626496  0.20443858    -0.85100
Zr541      Zr  0.90932099  0.68188291  0.17789101     2.26400
Zr542      Zr  0.83409492  0.63394621  0.15474471     2.06300
Zr543      Zr  0.86371500  0.67899328  0.22076885     2.10000
Zr544      Zr  0.87466506  0.58685355  0.19626959     1.78800
O545        O  0.85543761  0.73052396  0.23977394    -0.93900
O546        O  0.86576289  0.53378430  0.17814984    -0.41700
O547        O  0.90233115  0.64395584  0.20307442    -0.78400
O548        O  0.88801612  0.62277572  0.17094141    -0.97100
O549        O  0.85517122  0.69170855  0.16203499    -0.90400
O550        O  0.87007565  0.71577260  0.19566599    -0.93200
C551        C  0.80337002  0.55175482  0.22013995     1.00500
C552        C  0.78117017  0.68205505  0.23490956     1.13500
C553        C  0.75121959  0.59684139  0.15410809     1.04300
O554        O  0.85642686  0.57810122  0.14245156    -0.95400
O555        O  0.87462022  0.65741654  0.13320678    -0.91100
O556        O  0.92526293  0.67203379  0.14783252    -0.84300
C557        C  0.90724066  0.66771073  0.13366502     1.10900
O558        O  0.75506460  0.74456609  0.18654172    -0.97300
Zr559      Zr  0.81476875  0.72302250  0.18005654     1.88900
O560        O  0.90806692  0.73987060  0.16327221    -0.74000
O561        O  0.80773235  0.65641889  0.12741251    -0.53300
O562        O  0.77830115  0.73903399  0.15457567    -0.97900
O563        O  0.81449910  0.77591080  0.19874534    -0.55100
O564        O  0.85209235  0.76390910  0.16544945    -0.74500
C565        C  0.88383910  0.76332919  0.15969659     0.97800
O566        O  0.97266935  0.66653508  0.17576179    -0.63300
O567        O  0.89273484  0.64577918  0.24456169    -0.58100
O568        O  0.94923343  0.71302120  0.19789607    -0.94800
O569        O  0.92069148  0.71436732  0.22392702    -0.93200
O570        O  0.91033713  0.56686587  0.22136609    -0.93600
O571        O  0.93146473  0.55800267  0.18943189    -0.92400
C572        C  0.94730253  0.72258734  0.21392184     1.16700
H573        H  0.83304879  0.61109916  0.22512556     0.32600
H574        H  0.90505836  0.61049095  0.16369691     0.43500
H575        H  0.88011506  0.73880162  0.19852787     0.37000
H576        H  0.76863666  0.66921247  0.16519840     0.33500
H577        H  0.87522623  0.51354806  0.18530258     0.25300
H578        H  0.80360483  0.63526168  0.11986674     0.31200
H579        H  0.78102088  0.76539052  0.15334570     0.37100
H580        H  0.92534977  0.58781121  0.22452509     0.31600
H581        H  0.89370616  0.66298273  0.25437996     0.30500
H582        H  0.87363065  0.72765007  0.24921080     0.32100
H583        H  0.83746257  0.78837740  0.19662109     0.31100
H584        H  0.94400214  0.57507515  0.18167890     0.35100
H585        H  0.98246038  0.68312696  0.16688246     0.27800
H586        H  0.71074193  0.60024237  0.20097513     0.32100
H587        H  0.73958452  0.72331625  0.18462776     0.34900
H588        H  0.87493109  0.62764886  0.24821715     0.27500
H589        H  0.97314398  0.64257811  0.17019501     0.40400
H590        H  0.84303550  0.57542887  0.13128996     0.30500
H591        H  0.83956960  0.52973366  0.17779855     0.38100
H592        H  0.81698845  0.76620835  0.21076481     0.29900
H593        H  0.78354936  0.66540309  0.13032292     0.30000
H594        H  0.70544228  0.64050291  0.19526897     0.30200
Zr595      Zr  0.63854275  0.49095610  0.05542388     2.17500
O596        O  0.63466329  0.55597494  0.05161322    -0.52100
O597        O  0.69085216  0.49704483  0.03649430    -0.75300
O598        O  0.66638164  0.52691586  0.08112188    -0.82100
O599        O  0.57270541  0.45786056  0.01903902    -0.83800
O600        O  0.66503398  0.49327127  0.10602018    -0.79500
O601        O  0.59196161  0.50871025  0.03276549    -0.91100
O602        O  0.72003764  0.44319044  0.03722549    -0.77100
O603        O  0.67518076  0.45257295  0.07312173    -0.86600
O604        O  0.64972591  0.43743801  0.03813357    -0.86200
O605        O  0.60392975  0.47760723  0.08085802    -0.73000
O606        O  0.58532105  0.45713926  0.04937864    -0.85100
Zr607      Zr  0.59802155  0.35733818  0.07528658     2.26400
Zr608      Zr  0.63996632  0.43721764  0.09805153     2.06300
Zr609      Zr  0.59606514  0.40384080  0.03240657     2.10000
Zr610      Zr  0.68798826  0.40094297  0.05593965     1.78800
O611        O  0.55336361  0.39571554  0.00843164    -0.93900
O612        O  0.74539918  0.40983357  0.07077483    -0.41700
O613        O  0.63414103  0.36724718  0.05002947    -0.78400
O614        O  0.65496278  0.38474521  0.08172438    -0.97100
O615        O  0.58431696  0.40938107  0.09166084    -0.90400
O616        O  0.56117788  0.39424838  0.05716438    -0.93200
C617        C  0.71602218  0.47569090  0.03168054     1.00500
C618        C  0.57260643  0.49205332  0.02106873     1.13500
C619        C  0.67308111  0.52192665  0.09787972     1.04300
O620        O  0.69744158  0.42458411  0.11228144    -0.95400
O621        O  0.62534068  0.39496589  0.12068763    -0.91100
O622        O  0.60090572  0.34792901  0.10634196    -0.84300
C623        C  0.61082978  0.36394925  0.12034366     1.10900
O624        O  0.52436403  0.50763360  0.07700522    -0.97300
Zr625      Zr  0.54893183  0.44730017  0.07364763     1.88900
O626        O  0.53426931  0.34593947  0.07925226    -0.74000
O627        O  0.60775804  0.46279957  0.12258177    -0.53300
O628        O  0.52626621  0.45853365  0.10285602    -0.97900
O629        O  0.50646392  0.46446169  0.05059834    -0.55100
O630        O  0.50625865  0.40005428  0.07783672    -0.74500
C631        C  0.50596888  0.36567882  0.07903164     0.97800
O632        O  0.62069925  0.29739571  0.08235316    -0.63300
O633        O  0.63792146  0.38896637  0.00938018    -0.58100
O634        O  0.57894662  0.31119774  0.05537062    -0.94800
O635        O  0.56611808  0.34288226  0.03068509    -0.93200
O636        O  0.69963392  0.36242283  0.03099516    -0.93600
O637        O  0.72403151  0.34858936  0.06388518    -0.92400
C638        C  0.56449010  0.31381760  0.04019286     1.16700
H639        H  0.65865554  0.44282749  0.02666561     0.32600
H640        H  0.66922189  0.36866895  0.08891036     0.43500
H641        H  0.53968577  0.38316883  0.05256357     0.37000
H642        H  0.59889464  0.49941362  0.08720815     0.33500
H643        H  0.75167618  0.43525945  0.06853217     0.25300
H644        H  0.62620060  0.46745220  0.13169146     0.31200
H645        H  0.52402704  0.43450937  0.10836398     0.37100
H646        H  0.72240417  0.37138835  0.02615198     0.31600
H647        H  0.63372306  0.36314286  0.00707817     0.30500
H648        H  0.52955216  0.39847805  0.01384673     0.32100
H649        H  0.48297026  0.46658640  0.05631587     0.31100
H650        H  0.70669891  0.32850335  0.06434213     0.35100
H651        H  0.64144809  0.30122878  0.09031579     0.27800
H652        H  0.60903182  0.56203862  0.05306340     0.32100
H653        H  0.49930698  0.50443176  0.08080333     0.34900
H654        H  0.62834987  0.40148760  0.99886728     0.27500
H655        H  0.60215161  0.28623039  0.08974303     0.40400
H656        H  0.69647595  0.39893903  0.11574602     0.30500
H657        H  0.73981321  0.40900123  0.08337337     0.38100
H658        H  0.50426821  0.44290361  0.04313106     0.29900
H659        H  0.59964164  0.48692829  0.11867389     0.30000
H660        H  0.63945572  0.56038567  0.03909706     0.30200
Zr661      Zr  0.89654860  0.00553927  0.04742694     2.17500
O662        O  0.90072265  0.07070251  0.04475838    -0.52100
O663        O  0.84354069  0.01973381  0.02932076    -0.75300
O664        O  0.93998001  0.02396018  0.02439555    -0.82100
O665        O  0.86293973  0.00214485  0.09630147    -0.83800
O666        O  0.93522989  0.97504993  0.00812344    -0.79500
O667        O  0.88041156  0.04134694  0.07527703    -0.91100
O668        O  0.81494373  0.96739926  0.02294108    -0.77100
O669        O  0.89254147  0.95556059  0.02710595    -0.86600
O670        O  0.84985986  0.96620534  0.05704544    -0.86200
O671        O  0.95376599  0.97306934  0.04555144    -0.73000
O672        O  0.91596029  0.98417466  0.07562055    -0.85100
Zr673      Zr  0.92318722  0.86808142  0.06367756     2.26400
Zr674      Zr  0.94888617  0.92261728  0.02556383     2.06300
Zr675      Zr  0.87018294  0.94326239  0.08466630     2.10000
Zr676      Zr  0.84597140  0.91754569  0.03677237     1.78800
O677        O  0.86178311  0.95027823  0.11600767    -0.93900
O678        O  0.84518234  0.90071765  0.00600046    -0.41700
O679        O  0.86451457  0.89447706  0.06476806    -0.78400
O680        O  0.90171593  0.88509036  0.03534286    -0.97100
O681        O  0.96955708  0.90597833  0.05368438    -0.90400
O682        O  0.92821069  0.91624496  0.08409368    -0.93200
C683        C  0.81844728  0.00156561  0.02185832     1.00500
C684        C  0.86883232  0.03410626  0.09108519     1.13500
C685        C  0.95064529  0.00476876  0.01142576     1.04300
O686        O  0.94586430  0.90277205  0.99529083    -0.95400
O687        O  0.97371108  0.85910313  0.02303844    -0.91100
O688        O  0.95296557  0.82532730  0.04545586    -0.84300
C689        C  0.97104019  0.82867528  0.03148249     1.10900
O690        O  0.99049978  0.01787647  0.07604184    -0.97300
Zr691      Zr  0.97290498  0.95512378  0.07352500     1.88900
O692        O  0.98045382  0.85242988  0.07648461    -0.74000
O693        O  0.01064443  0.93957380  0.01980431    -0.53300
O694        O  0.03224283  0.96666082  0.06195485    -0.97900
O695        O  0.98640027  0.96886159  0.10399738    -0.55100
O696        O  0.00750284  0.90500225  0.08386231    -0.74500
C697        C  0.00593391  0.87069884  0.08332283     0.97800
O698        O  0.89662778  0.80863086  0.06065420    -0.63300
O699        O  0.80509193  0.93822110  0.08330076    -0.58100
O700        O  0.90495234  0.84889594  0.09183471    -0.94800
O701        O  0.87267086  0.89325472  0.10463695    -0.93200
O702        O  0.78410925  0.91085195  0.04603112    -0.93600
O703        O  0.81459490  0.86039717  0.03432784    -0.92400
C704        C  0.88744695  0.86231249  0.10441095     1.16700
H705        H  0.82738440  0.97892418  0.05810020     0.32600
H706        H  0.89917775  0.86428287  0.02795423     0.43500
H707        H  0.93618414  0.90826001  0.09553145     0.37000
H708        H  0.97367513  0.98750239  0.04213919     0.33500
H709        H  0.83462721  0.92152031  0.99966382     0.25300
H710        H  0.02437327  0.93111565  0.03018452     0.31200
H711        H  0.04860762  0.96444661  0.07218918     0.37100
H712        H  0.77420238  0.93553132  0.04633528     0.31600
H713        H  0.79985858  0.91476504  0.08886262     0.30500
H714        H  0.83567689  0.95332871  0.11760332     0.32100
H715        H  0.01251011  0.96469023  0.10529471     0.31100
H716        H  0.83334469  0.84270613  0.03132075     0.35100
H717        H  0.90327188  0.79511082  0.07140134     0.27800
H718        H  0.89452655  0.07616435  0.03240855     0.32100
H719        H  0.97168825  0.03136041  0.06951064     0.34900
H720        H  0.79624822  0.95631514  0.09165936     0.27500
H721        H  0.87051095  0.81268836  0.06142197     0.40400
H722        H  0.97040595  0.89459368  0.99254576     0.30500
H723        H  0.87065350  0.90070721  0.00255319     0.38100
H724        H  0.97532837  0.94928151  0.11084368     0.29900
H725        H  0.01832474  0.92353170  0.01027986     0.30000
H726        H  0.92657096  0.07625564  0.04591336     0.30200
Zr727      Zr  0.77562170  0.13351503  0.19422339     2.17500
O728        O  0.84066695  0.13890927  0.19458507    -0.52100
O729        O  0.78861317  0.08362895  0.21481675    -0.75300
O730        O  0.79434335  0.17724796  0.21716791    -0.82100
O731        O  0.76945831  0.09589021  0.14573984    -0.83800
O732        O  0.74335319  0.17376452  0.23116250    -0.79500
O733        O  0.80975603  0.11443901  0.16623311    -0.91100
O734        O  0.73484843  0.06214537  0.22384150    -0.77100
O735        O  0.72542694  0.13604550  0.21410244    -0.86600
O736        O  0.73486815  0.08597389  0.18690130    -0.86200
O737        O  0.74562959  0.19254115  0.19342085    -0.73000
O738        O  0.75359345  0.14737081  0.16557328    -0.85100
Zr739      Zr  0.63915835  0.16160629  0.17640901     2.26400
Zr740      Zr  0.69401438  0.19331740  0.21304726     2.06300
Zr741      Zr  0.71161197  0.10104964  0.15848426     2.10000
Zr742      Zr  0.68630498  0.08850451  0.20705158     1.78800
O743        O  0.71882345  0.08072635  0.12851359    -0.93900
O744        O  0.66948684  0.09292150  0.23759631    -0.41700
O745        O  0.66345075  0.10198416  0.17845652    -0.78400
O746        O  0.65494627  0.14522352  0.20568329    -0.97100
O747        O  0.67903857  0.20807767  0.18408259    -0.90400
O748        O  0.68673105  0.16011859  0.15590005    -0.93200
C749        C  0.76909784  0.06297502  0.22435037     1.00500
C750        C  0.80163879  0.10236462  0.15049759     1.13500
C751        C  0.77371469  0.18848533  0.22937137     1.04300
O752        O  0.67487916  0.20029508  0.24307956    -0.95400
O753        O  0.63053517  0.21927459  0.21449506    -0.91100
O754        O  0.59608614  0.19301971  0.19367368    -0.84300
C755        C  0.59980221  0.21472496  0.20640827     1.10900
O756        O  0.78908620  0.21444137  0.15472229    -0.97300
Zr757      Zr  0.72763377  0.20569791  0.16425326     1.88900
O758        O  0.62827904  0.22140371  0.16465450    -0.74000
O759        O  0.71061021  0.25627243  0.21646638    -0.53300
O760        O  0.75252527  0.26289201  0.17388045    -0.97900
O761        O  0.72712828  0.21070971  0.13241202    -0.55100
O762        O  0.68079077  0.24721546  0.15678937    -0.74500
C763        C  0.64681391  0.24755935  0.15864109     0.97800
O764        O  0.57968271  0.13490835  0.17430072    -0.63300
O765        O  0.70674314  0.03664429  0.16379924    -0.58100
O766        O  0.61837756  0.13954478  0.14939621    -0.94800
O767        O  0.65949927  0.09949935  0.13950670    -0.93200
O768        O  0.68219696  0.02462044  0.20040529    -0.93600
O769        O  0.62777793  0.06067901  0.21027438    -0.92400
C770        C  0.62973753  0.11645579  0.13859528     1.16700
H771        H  0.74687083  0.06302990  0.18712078     0.32600
H772        H  0.63428680  0.14478963  0.21314322     0.43500
H773        H  0.67872412  0.16534451  0.14420318     0.37000
H774        H  0.76192502  0.21156937  0.19644199     0.33500
H775        H  0.67440786  0.06878597  0.24260099     0.25300
H776        H  0.71172233  0.26019844  0.22924269     0.31200
H777        H  0.75041247  0.27892061  0.16355686     0.37100
H778        H  0.69215290  0.01210439  0.21084014     0.31600
H779        H  0.68668399  0.02879409  0.15614995     0.30500
H780        H  0.71411383  0.05454651  0.12874306     0.32100
H781        H  0.73970375  0.23350573  0.12987975     0.31100
H782        H  0.61050402  0.07943139  0.20642090     0.35100
H783        H  0.57414421  0.12664835  0.18627277     0.27800
H784        H  0.84826762  0.13160620  0.20652694     0.32100
H785        H  0.80410689  0.20679170  0.16484801     0.34900
H786        H  0.72840687  0.02619895  0.15847049     0.27500
H787        H  0.56271629  0.15485095  0.17182647     0.40400
H788        H  0.66423161  0.17677253  0.24613228     0.30500
H789        H  0.68795073  0.10860432  0.24296244     0.38100
H790        H  0.70194500  0.21549747  0.12888541     0.29900
H791        H  0.73566248  0.25819162  0.21259229     0.30000
H792        H  0.84540898  0.16505511  0.19399161     0.30200
Zr793      Zr  0.24396545  0.88879635  0.19611202     2.17500
O794        O  0.30862742  0.88390424  0.20004226    -0.52100
O795        O  0.25493859  0.94068876  0.21551701    -0.75300
O796        O  0.27815474  0.91075967  0.16840355    -0.82100
O797        O  0.21442951  0.82409402  0.23423301    -0.83800
O798        O  0.23832617  0.91712584  0.14599576    -0.79500
O799        O  0.26273501  0.84106472  0.21819719    -0.91100
O800        O  0.20327023  0.97304376  0.21702577    -0.77100
O801        O  0.20515004  0.92839989  0.18011288    -0.86600
O802        O  0.19377665  0.90140187  0.21505919    -0.86200
O803        O  0.22376052  0.85640541  0.17066116    -0.73000
O804        O  0.21065173  0.83580108  0.20385005    -0.85100
Zr805      Zr  0.10655944  0.85679125  0.18040767     2.26400
Zr806      Zr  0.18224641  0.89529285  0.15548308     2.06300
Zr807      Zr  0.15945087  0.84850476  0.22177434     2.10000
Zr808      Zr  0.15766871  0.94343646  0.19924404     1.78800
O809        O  0.15497729  0.80466283  0.24544139    -0.93900
O810        O  0.17257708  0.99857833  0.18362389    -0.41700
O811        O  0.12311357  0.89038568  0.20593041    -0.78400
O812        O  0.13427878  0.91319327  0.17378498    -0.97100
O813        O  0.15599948  0.84001540  0.16302558    -0.90400
O814        O  0.14291535  0.81548288  0.19671287    -0.93200
C815        C  0.23594903  0.96676764  0.22153344     1.00500
C816        C  0.24798395  0.82252052  0.23074012     1.13500
C817        C  0.26992859  0.91984535  0.15214590     1.04300
O818        O  0.16095014  0.95191702  0.14301117    -0.95400
O819        O  0.13639650  0.87027679  0.13623334    -0.91100
O820        O  0.08530073  0.87088694  0.15136130    -0.84300
C821        C  0.10239206  0.86657329  0.13718325     1.10900
O822        O  0.24892567  0.78768931  0.16386603    -0.97300
Zr823      Zr  0.19442550  0.80182158  0.17970035     1.88900
O824        O  0.10307834  0.80382777  0.16247127    -0.74000
O825        O  0.20135923  0.87531631  0.12671037    -0.53300
O826        O  0.20646972  0.74627529  0.16400333    -0.97900
O827        O  0.21346237  0.76691823  0.20517463    -0.55100
O828        O  0.14347512  0.76531182  0.17389568    -0.74500
C829        C  0.11888733  0.77349949  0.16307565     0.97800
O830        O  0.04487228  0.87839144  0.18131202    -0.63300
O831        O  0.14738187  0.88997742  0.24556546    -0.58100
O832        O  0.06701318  0.82559707  0.19967976    -0.94800
O833        O  0.09881562  0.81928469  0.22502658    -0.93200
O834        O  0.12882831  0.96189260  0.22612089    -0.93600
O835        O  0.10462666  0.97970202  0.19290651    -0.92400
C836        C  0.07032802  0.81417021  0.21538222     1.16700
H837        H  0.20132754  0.90997428  0.22639837     0.32600
H838        H  0.11756206  0.92858230  0.16752179     0.43500
H839        H  0.13059366  0.79380826  0.20017069     0.37000
H840        H  0.24372801  0.85160144  0.16314747     0.33500
H841        H  0.19867043  0.00182787  0.18549297     0.25300
H842        H  0.20744531  0.89704458  0.11982658     0.31200
H843        H  0.20460521  0.72678794  0.17280439     0.37100
H844        H  0.13509625  0.98758663  0.22747826     0.31600
H845        H  0.12795101  0.87851871  0.25227982     0.30500
H846        H  0.15490060  0.81879457  0.25635574     0.32100
H847        H  0.22922037  0.74791291  0.20052893     0.31100
H848        H  0.08424380  0.96377518  0.19570227     0.35100
H849        H  0.04520103  0.90219367  0.17547186     0.27800
H850        H  0.31802401  0.90811377  0.19726499     0.32100
H851        H  0.26847076  0.79011155  0.17263970     0.34900
H852        H  0.16873828  0.88824411  0.25333028     0.27500
H853        H  0.03095625  0.86281042  0.17329564     0.40400
H854        H  0.13976058  0.94537223  0.13580557     0.30500
H855        H  0.17015440  0.99241255  0.17111707     0.38100
H856        H  0.19163255  0.75393764  0.20880162     0.29900
H857        H  0.22420270  0.86216603  0.12850627     0.30000
H858        H  0.31662761  0.86849090  0.19033153     0.30200
Zr859      Zr  0.39289751  0.01208373  0.05214118     2.17500
O860        O  0.39823070  0.94808309  0.04615364    -0.52100
O861        O  0.33945145  0.00786643  0.03351178    -0.75300
O862        O  0.36087243  0.97816471  0.07767725    -0.82100
O863        O  0.43426984  0.04833980  0.01091545    -0.83800
O864        O  0.37351903  0.00445779  0.10377906    -0.79500
O865        O  0.43945549  0.00043700  0.02875756    -0.91100
O866        O  0.30872773  0.06030693  0.03633244    -0.77100
O867        O  0.35845632  0.04867377  0.07099384    -0.86600
O868        O  0.38099287  0.06759322  0.03600696    -0.86200
O869        O  0.43024582  0.02225844  0.07751251    -0.73000
O870        O  0.44652014  0.04495288  0.04537523    -0.85100
Zr871      Zr  0.43683594  0.14183140  0.07380564     2.26400
Zr872      Zr  0.39622096  0.06160085  0.09578524     2.06300
Zr873      Zr  0.43501191  0.10059015  0.02978056     2.10000
Zr874      Zr  0.34400267  0.10148261  0.05474392     1.78800
O875        O  0.48058238  0.09909265  0.00729505    -0.93900
O876        O  0.29323196  0.08802549  0.07333790    -0.41700
O877        O  0.39822612  0.13451861  0.04870649    -0.78400
O878        O  0.37984200  0.11544565  0.08034439    -0.97100
O879        O  0.45174934  0.08755122  0.08867861    -0.90400
O880        O  0.47262748  0.10730760  0.05462230    -0.93200
C881        C  0.31324665  0.02900668  0.02955820     1.00500
C882        C  0.44871366  0.01805426  0.01469741     1.13500
C883        C  0.35832324  0.98008278  0.09486872     1.04300
O884        O  0.33938120  0.07004614  0.11045208    -0.95400
O885        O  0.41108053  0.10630556  0.11760958    -0.91100
O886        O  0.42745481  0.15748714  0.10376556    -0.84300
C887        C  0.42072187  0.13933287  0.11753398     1.10900
O888        O  0.50444523  0.98896433  0.07015338    -0.97300
Zr889      Zr  0.48516593  0.05158211  0.06926485     1.88900
O890        O  0.49356009  0.13927669  0.08947477    -0.74000
O891        O  0.42686496  0.03630066  0.12140890    -0.53300
O892        O  0.52018011  0.03245987  0.09472666    -0.97900
O893        O  0.52640256  0.04353690  0.04518449    -0.55100
O894        O  0.52721401  0.09773834  0.07592820    -0.74500
C895        C  0.52257044  0.12152167  0.08749245     0.97800
O896        O  0.41952225  0.20465210  0.07685765    -0.63300
O897        O  0.39488047  0.12979097  0.00871717    -0.58100
O898        O  0.46715535  0.18503851  0.05574242    -0.94800
O899        O  0.46757874  0.16042060  0.02863514    -0.93200
O900        O  0.32164862  0.13715756  0.03011392    -0.93600
O901        O  0.31206486  0.15703841  0.06105261    -0.92400
C902        C  0.47565452  0.18593594  0.03961977     1.16700
H903        H  0.37014294  0.06377436  0.02466711     0.32600
H904        H  0.36651592  0.13130379  0.08788931     0.43500
H905        H  0.49436303  0.11937923  0.05130915     0.37000
H906        H  0.43536360  0.99993321  0.08344565     0.33500
H907        H  0.29345144  0.10672436  0.08248293     0.25300
H908        H  0.40787919  0.03140704  0.13002727     0.31200
H909        H  0.50300619  0.01927100  0.10212589     0.37100
H910        H  0.31995717  0.12030639  0.02017317     0.31600
H911        H  0.40268885  0.15519778  0.00851763     0.30500
H912        H  0.46894000  0.10987157  0.99681055     0.32100
H913        H  0.55041573  0.04827263  0.05030041     0.31100
H914        H  0.32863504  0.17089392  0.06862962     0.35100
H915        H  0.39641625  0.20424842  0.08306067     0.27800
H916        H  0.37321693  0.93938725  0.04534453     0.32100
H917        H  0.53061630  0.98940699  0.06820241     0.34900
H918        H  0.40207965  0.12018841  0.99723940     0.27500
H919        H  0.43689198  0.21489635  0.08534047     0.40400
H920        H  0.33258475  0.09536768  0.10817051     0.30500
H921        H  0.27181191  0.09357002  0.06603708     0.38100
H922        H  0.52182384  0.06417168  0.03723924     0.29900
H923        H  0.43570759  0.01236040  0.11787405     0.30000
H924        H  0.40781795  0.93746855  0.05714557     0.30200
Zr925      Zr  0.29062752  0.38076872  0.19341180     2.17500
O926        O  0.22571868  0.37762455  0.19610665    -0.52100
O927        O  0.28963246  0.43263358  0.21280452    -0.75300
O928        O  0.27653107  0.34318762  0.21982635    -0.82100
O929        O  0.28057704  0.40887673  0.14333013    -0.83800
O930        O  0.32984093  0.34320884  0.23329070    -0.79500
O931        O  0.25139017  0.41126698  0.16918598    -0.91100
O932        O  0.34410993  0.45969376  0.21136474    -0.77100
O933        O  0.34718296  0.38691073  0.20909189    -0.86600
O934        O  0.32843705  0.41857709  0.17637208    -0.86200
O935        O  0.31964935  0.32189838  0.19715222    -0.73000
O936        O  0.29908125  0.34988555  0.16627543    -0.85100
Zr937      Zr  0.41762645  0.33565839  0.16887079     2.26400
Zr938      Zr  0.37644912  0.32895249  0.21282021     2.06300
Zr939      Zr  0.33910693  0.38667806  0.14975065     2.10000
Zr940      Zr  0.38323020  0.42575947  0.19225699     1.78800
O941        O  0.30891630  0.37883663  0.12161711    -0.93900
O942        O  0.41766030  0.43888044  0.21877955    -0.41700
O943        O  0.39432851  0.39551058  0.16510235    -0.78400
O944        O  0.41240418  0.36815906  0.19573019    -0.97100
O945        O  0.38060676  0.29840632  0.18608898    -0.90400
O946        O  0.36237512  0.32740903  0.15334342    -0.93200
C947        C  0.31221159  0.45702472  0.21729939     1.00500
C948        C  0.25351235  0.41763003  0.15227040     1.13500
C949        C  0.29811993  0.33082383  0.23186586     1.04300
O950        O  0.40881213  0.34923726  0.23876250    -0.95400
O951        O  0.43760708  0.29911151  0.21357763    -0.91100
O952        O  0.46366159  0.30776238  0.18720730    -0.84300
C953        C  0.46433591  0.29549498  0.20291949     1.10900
O954        O  0.26164007  0.27702138  0.17176062    -0.97300
Zr955      Zr  0.32511913  0.29163028  0.17065748     1.88900
O956        O  0.42335877  0.27180165  0.16431799    -0.74000
O957        O  0.36453055  0.27100993  0.22650283    -0.53300
O958        O  0.30646914  0.23867935  0.18700808    -0.97900
O959        O  0.30728500  0.27317108  0.14124455    -0.55100
O960        O  0.36904829  0.24552453  0.16633334    -0.74500
C961        C  0.40301448  0.24415025  0.16446498     0.97800
O962        O  0.47595852  0.36039422  0.16157094    -0.63300
O963        O  0.35773716  0.44711693  0.14146980    -0.58100
O964        O  0.42551233  0.33808963  0.13747458    -0.94800
O965        O  0.37779976  0.36867674  0.12627978    -0.93200
O966        O  0.37712219  0.48309448  0.17696725    -0.93600
O967        O  0.43961607  0.45604037  0.18631723    -0.92400
C968        C  0.40706770  0.35113641  0.12463346     1.16700
H969        H  0.31721525  0.44161197  0.17412603     0.32600
H970        H  0.43577149  0.37104589  0.20112131     0.43500
H971        H  0.36504361  0.31421756  0.14267087     0.37000
H972        H  0.30570609  0.30390345  0.20296093     0.33500
H973        H  0.40383991  0.42772904  0.22832166     0.25300
H974        H  0.37683692  0.25328385  0.21906329     0.31200
H975        H  0.31715403  0.24148160  0.19882201     0.37100
H976        H  0.37916237  0.50148085  0.18623500     0.31600
H977        H  0.38376994  0.44516194  0.13935803     0.30500
H978        H  0.31478993  0.40050148  0.11465740     0.32100
H979        H  0.32756896  0.25872177  0.13689178     0.31100
H980        H  0.44996212  0.44260848  0.17645567     0.35100
H981        H  0.47042135  0.38225363  0.15459577     0.27800
H982        H  0.22091716  0.37679063  0.20878779     0.32100
H983        H  0.24994172  0.29356259  0.16325777     0.34900
H984        H  0.34697603  0.45113837  0.12973515     0.27500
H985        H  0.48552741  0.36986117  0.17275085     0.40400
H986        H  0.41175771  0.32740734  0.24610171     0.30500
H987        H  0.43973335  0.42417474  0.21813337     0.38100
H988        H  0.30725040  0.29536788  0.13404893     0.29900
H989        H  0.37869959  0.27118617  0.23752351     0.30000
H990        H  0.21929912  0.35342987  0.19177831     0.30200
Zr991      Zr  0.13568651  0.52591789  0.05493031     2.17500
O992        O  0.13409964  0.46042694  0.05549450    -0.52100
O993        O  0.18756509  0.51873663  0.03556048    -0.75300
O994        O  0.09755924  0.50184617  0.03073922    -0.82100
O995        O  0.16424882  0.53240230  0.10487106    -0.83800
O996        O  0.09728870  0.54998172  0.01344611    -0.79500
O997        O  0.16422773  0.49381713  0.08200261    -0.91100
O998        O  0.20913732  0.57452371  0.02956376    -0.77100
O999        O  0.13918407  0.57626798  0.03478761    -0.86600
O1000       O  0.17486834  0.56936945  0.06774511    -0.86200
O1001       O  0.07602846  0.55299660  0.04982682    -0.73000
O1002       O  0.10651393  0.54449824  0.08129067    -0.85100
Zr1003     Zr  0.09224782  0.65994683  0.06847975     2.26400
Zr1004     Zr  0.08071612  0.60331425  0.02939657     2.06300
Zr1005     Zr  0.14526349  0.58945407  0.09354185     2.10000
Zr1006     Zr  0.17922525  0.61818034  0.04746316     1.78800
O1007       O  0.14416889  0.57422086  0.12455323    -0.93900
O1008       O  0.18902219  0.64737246  0.01934853    -0.41700
O1009       O  0.15188345  0.63867346  0.07374176    -0.78400
O1010       O  0.12149641  0.64505243  0.04203101    -0.97100
O1011       O  0.05210568  0.61839954  0.05568925    -0.90400
O1012       O  0.08601596  0.61193622  0.08900728    -0.93200
C1013       C  0.20875019  0.54041025  0.02753777     1.00500
C1014       C  0.17155688  0.50179790  0.09841225     1.13500
C1015       C  0.08495619  0.51904464  0.01730191     1.04300
O1016       O  0.09770002  0.62633481  0.00085326    -0.95400
O1017       O  0.05023293  0.66382944  0.02449045    -0.91100
O1018       O  0.06345209  0.69906963  0.04782190    -0.84300
C1019       C  0.04874205  0.69424182  0.03288992     1.10900
O1020       O  0.02695575  0.50786290  0.07722892    -0.97300
Zr1021     Zr  0.04797531  0.56965276  0.07584250     1.88900
O1022       O  0.03142473  0.67138171  0.07639175    -0.74000
O1023       O  0.02261539  0.58507268  0.01767871    -0.53300
O1024       O  0.99154643  0.55804054  0.06064447    -0.97900
O1025       O  0.03546829  0.55290036  0.10598233    -0.55100
O1026       O  0.00834164  0.61754830  0.08451252    -0.74500
C1027       C  0.00682454  0.65184675  0.08283290     0.97800
O1028       O  0.11504063  0.72126474  0.06739930    -0.63300
O1029       O  0.20689262  0.60977559  0.09762390    -0.58100
O1030       O  0.10110086  0.68063594  0.09748049    -0.94800
O1031       O  0.13219084  0.63825907  0.11304886    -0.93200
O1032       O  0.23802874  0.61390711  0.06149256    -0.93600
O1033       O  0.20950428  0.67596441  0.04963363    -0.92400
C1034       C  0.11604558  0.66842296  0.11134166     1.16700
H1035       H  0.19794550  0.55891576  0.07045630     0.32600
H1036       H  0.12382687  0.66603180  0.03467944     0.43500
H1037       H  0.07457811  0.61905141  0.09969175     0.37000
H1038       H  0.05808856  0.53662034  0.04555862     0.33500
H1039       H  0.21513366  0.64538326  0.01742372     0.25300
H1040       H  0.02326071  0.59179577  0.00516277     0.31200
H1041       H  0.99086982  0.57568198  0.05092853     0.37100
H1042       H  0.25516458  0.61332944  0.05174179     0.31600
H1043       H  0.20738213  0.63482191  0.09321514     0.30500
H1044       H  0.16741229  0.58248848  0.12944663     0.32100
H1045       H  0.03445428  0.57580732  0.11247686     0.31100
H1046       H  0.19571990  0.68961070  0.05835127     0.35100
H1047       H  0.10164388  0.73478482  0.07631106     0.27800
H1048       H  0.14038665  0.45281177  0.04354192     0.32100
H1049       H  0.04775361  0.49400841  0.08180692     0.34900
H1050       H  0.20998572  0.61229538  0.11041480     0.27500
H1051       H  0.13983385  0.71963393  0.07205861     0.40400
H1052       H  0.07922546  0.61701967  0.99267237     0.30500
H1053       H  0.17813266  0.63094186  0.01065210     0.38100
H1054       H  0.05773313  0.54109869  0.11026092     0.29900
H1055       H  0.00539299  0.60221660  0.02276050     0.30000
H1056       H  0.10851644  0.45411561  0.05673044     0.30200
Zr1057     Zr  0.29108553  0.88652146  0.79893794     2.17500
O1058       O  0.22645607  0.87927567  0.79581221    -0.52100
O1059       O  0.28325783  0.93915257  0.77993607    -0.75300
O1060       O  0.25683639  0.91415073  0.82530012    -0.82100
O1061       O  0.32134470  0.83166682  0.75764960    -0.83800
O1062       O  0.29371573  0.91270495  0.84911371    -0.79500
O1063       O  0.27350206  0.84230881  0.77504541    -0.91100
O1064       O  0.33624497  0.96946654  0.78026545    -0.77100
O1065       O  0.33112500  0.92303804  0.81582095    -0.86600
O1066       O  0.34311529  0.89775359  0.78095020    -0.86200
O1067       O  0.30755779  0.85183659  0.82452604    -0.73000
O1068       O  0.32151185  0.83203732  0.79090380    -0.85100
Zr1069     Zr  0.42540654  0.84500361  0.81630834     2.26400
Zr1070     Zr  0.35010570  0.88772336  0.84068589     2.06300
Zr1071     Zr  0.37505085  0.84363229  0.77426573     2.10000
Zr1072     Zr  0.38074320  0.93627237  0.79761642     1.78800
O1073       O  0.37511018  0.79788308  0.75161994    -0.93900
O1074       O  0.37416839  0.99118387  0.81451957    -0.41700
O1075       O  0.41278904  0.88169287  0.79112027    -0.78400
O1076       O  0.40035880  0.90290967  0.82301391    -0.97100
O1077       O  0.37363915  0.83135014  0.83271687    -0.90400
O1078       O  0.38756080  0.80758457  0.79897382    -0.93200
C1079       C  0.30369945  0.96495735  0.77498007     1.00500
C1080       C  0.28828827  0.82750354  0.76142166     1.13500
C1081       C  0.26376834  0.92071521  0.84193342     1.04300
O1082       O  0.37381923  0.94336698  0.85279422    -0.95400
O1083       O  0.39518854  0.85967403  0.86000810    -0.91100
O1084       O  0.44589539  0.86283225  0.84467281    -0.84300
C1085       C  0.42937354  0.85693871  0.85883517     1.10900
O1086       O  0.28052073  0.78288182  0.83152041    -0.97300
Zr1087     Zr  0.33440785  0.79626303  0.81509967     1.88900
O1088       O  0.42174050  0.79317400  0.83554491    -0.74000
O1089       O  0.32961239  0.87171919  0.86992661    -0.53300
O1090       O  0.31932585  0.73760402  0.82731485    -0.97900
O1091       O  0.31314354  0.76911011  0.78806963    -0.55100
O1092       O  0.38435553  0.75787844  0.82069246    -0.74500
C1093       C  0.40474004  0.76381766  0.83358414     0.97800
O1094       O  0.48973780  0.85674565  0.81480305    -0.63300
O1095       O  0.39500775  0.88577026  0.75198917    -0.58100
O1096       O  0.46278595  0.81020459  0.79725522    -0.94800
O1097       O  0.43392608  0.81131016  0.77090636    -0.93200
O1098       O  0.40952264  0.95526290  0.77071932    -0.93600
O1099       O  0.43732522  0.96699094  0.80307020    -0.92400
C1100       C  0.46061763  0.80205461  0.78104415     1.16700
H1101       H  0.33693476  0.90738097  0.76959990     0.32600
H1102       H  0.41747256  0.91712033  0.82953889     0.43500
H1103       H  0.39858111  0.78567040  0.79504187     0.37000
H1104       H  0.28668513  0.84779672  0.83155609     0.33500
H1105       H  0.37588840  0.01085523  0.80581830     0.25300
H1106       H  0.32510029  0.89450315  0.87616429     0.31200
H1107       H  0.32365576  0.72016945  0.81784379     0.37100
H1108       H  0.43234584  0.94167760  0.77039959     0.31600
H1109       H  0.41695912  0.87473382  0.74724547     0.30500
H1110       H  0.38512894  0.80996886  0.74122468     0.32100
H1111       H  0.29705839  0.74945692  0.79176324     0.31100
H1112       H  0.45542230  0.94747587  0.80359552     0.35100
H1113       H  0.49140394  0.87961981  0.80819399     0.27800
H1114       H  0.21621660  0.90353362  0.79761115     0.32100
H1115       H  0.26089679  0.78390393  0.82269297     0.34900
H1116       H  0.37697837  0.88371081  0.74244739     0.27500
H1117       H  0.49858144  0.86281050  0.82664944     0.40400
H1118       H  0.39362343  0.93565276  0.86069895     0.30500
H1119       H  0.34880296  0.99158642  0.81813618     0.38100
H1120       H  0.33435363  0.75666732  0.78333966     0.29900
H1121       H  0.30585221  0.86021064  0.86845581     0.30000
H1122       H  0.21932689  0.86522265  0.80621851     0.30200
Zr1123     Zr  0.14782508  0.02104072  0.94151977     2.17500
O1124       O  0.14236304  0.95616968  0.94516716    -0.52100
O1125       O  0.19880367  0.01168523  0.96211871    -0.75300
O1126       O  0.17522861  0.98767811  0.91488926    -0.82100
O1127       O  0.10442165  0.04625717  0.98186654    -0.83800
O1128       O  0.18363161  0.02884637  0.89329722    -0.79500
O1129       O  0.09863448  0.00291177  0.96223942    -0.91100
O1130       O  0.22773393  0.06509713  0.96553222    -0.77100
O1131       O  0.18822420  0.06323750  0.92864961    -0.86600
O1132       O  0.15406462  0.07165327  0.96125968    -0.86200
O1133       O  0.11997880  0.04095734  0.91455916    -0.73000
O1134       O  0.09056848  0.05059104  0.94616912    -0.85100
Zr1135     Zr  0.11067896  0.16014507  0.92720437     2.26400
Zr1136     Zr  0.15960016  0.08571711  0.90247970     2.06300
Zr1137     Zr  0.09741082  0.10150230  0.96590232     2.10000
Zr1138     Zr  0.19613899  0.11127360  0.94889614     1.78800
O1139       O  0.03659095  0.08991379  0.97548997    -0.93900
O1140       O  0.25396300  0.10798841  0.93457300    -0.41700
O1141       O  0.14000188  0.14177807  0.95381328    -0.78400
O1142       O  0.16927762  0.13444970  0.92240668    -0.97100
O1143       O  0.10299031  0.11110734  0.90731851    -0.90400
O1144       O  0.06893813  0.11876878  0.93945958    -0.93200
C1145       C  0.22320939  0.03172706  0.96914110     1.00500
C1146       C  0.08856151  0.01815178  0.97662272     1.13500
C1147       C  0.18647274  0.99678244  0.89922051     1.04300
O1148       O  0.21944746  0.10691037  0.89564625    -0.95400
O1149       O  0.13801952  0.13365158  0.88274347    -0.91100
O1150       O  0.12601180  0.18277378  0.89888165    -0.84300
C1151       C  0.12920204  0.16697810  0.88423139     1.10900
O1152       O  0.05315602  0.01144961  0.90575397    -0.97300
Zr1153     Zr  0.06318431  0.06927262  0.91981022     1.88900
O1154       O  0.05114739  0.16956999  0.91458066    -0.74000
O1155       O  0.14745192  0.07067529  0.87195459    -0.53300
O1156       O  0.00967280  0.05895798  0.90188669    -0.97900
O1157       O  0.01192621  0.06935497  0.93933213    -0.55100
O1158       O  0.06349792  0.12025935  0.90088127    -0.74500
C1159       C  0.04218433  0.14618531  0.90335030     0.97800
O1160       O  0.13341019  0.22130070  0.92992892    -0.63300
O1161       O  0.11685737  0.11877791  0.99517868    -0.58100
O1162       O  0.07913334  0.19725567  0.94780883    -0.94800
O1163       O  0.06918736  0.16183035  0.97151544    -0.93200
O1164       O  0.21040222  0.13125980  0.97843526    -0.93600
O1165       O  0.22414067  0.17016476  0.95108172    -0.92400
C1166       C  0.06580210  0.19194403  0.96293678     1.16700
H1167       H  0.16274691  0.06426997  0.97262268     0.32600
H1168       H  0.18474506  0.15225507  0.91727554     0.43500
H1169       H  0.04609897  0.13010486  0.94167962     0.37000
H1170       H  0.11731923  0.02128275  0.90648808     0.33500
H1171       H  0.27173642  0.11146400  0.94413035     0.25300
H1172       H  0.17092647  0.06556601  0.86661880     0.31200
H1173       H  0.99207236  0.07741018  0.90537974     0.37100
H1174       H  0.19414226  0.11753700  0.98608129     0.31600
H1175       H  0.09611261  0.11333991  0.00266316     0.30500
H1176       H  0.03614502  0.09829860  0.98773321     0.32100
H1177       H  0.99765283  0.04799985  0.93603926     0.31100
H1178       H  0.20401846  0.18694921  0.95313759     0.35100
H1179       H  0.15623213  0.22156277  0.92348327     0.27800
H1180       H  0.16713370  0.94679130  0.94444932     0.32100
H1181       H  0.05145086  0.99404875  0.91552922     0.34900
H1182       H  0.13514425  0.10071824  0.99866972     0.27500
H1183       H  0.11683885  0.23640707  0.92283172     0.40400
H1184       H  0.21726917  0.11652105  0.88360197     0.30500
H1185       H  0.25677615  0.08242651  0.93129658     0.38100
H1186       H  0.99691907  0.09011138  0.93562722     0.29900
H1187       H  0.13457483  0.04741970  0.87206380     0.30000
H1188       H  0.13026242  0.94777871  0.93435115     0.30200
Zr1189     Zr  0.75173990  0.62912322  0.80517174     2.17500
O1190       O  0.81632094  0.63784903  0.80451604    -0.52100
O1191       O  0.76137716  0.57842655  0.78545580    -0.75300
O1192       O  0.78110474  0.59866611  0.83259344    -0.82100
O1193       O  0.72633137  0.67001345  0.76269346    -0.83800
O1194       O  0.74118432  0.59724724  0.85476266    -0.79500
O1195       O  0.76990150  0.67516353  0.78261947    -0.91100
O1196       O  0.70778246  0.54972256  0.78255471    -0.77100
O1197       O  0.70989417  0.59180227  0.81983420    -0.86600
O1198       O  0.70127636  0.62085961  0.78526789    -0.86200
O1199       O  0.73320869  0.66171781  0.83059207    -0.73000
O1200       O  0.72250706  0.68510252  0.79782752    -0.85100
Zr1201     Zr  0.61704785  0.67226971  0.81850156     2.26400
Zr1202     Zr  0.68827134  0.62517737  0.84424194     2.06300
Zr1203     Zr  0.67153885  0.67667573  0.77843039     2.10000
Zr1204     Zr  0.66231196  0.58102333  0.79968010     1.78800
O1205       O  0.68337169  0.73409870  0.76431656    -0.93900
O1206       O  0.67310128  0.52663466  0.81697290    -0.41700
O1207       O  0.63230017  0.63737878  0.79336500    -0.78400
O1208       O  0.63983331  0.61294236  0.82463549    -0.97100
O1209       O  0.66631275  0.68323447  0.83761502    -0.90400
O1210       O  0.65741777  0.71022190  0.80338863    -0.93200
C1211       C  0.74105901  0.55402428  0.77879812     1.00500
C1212       C  0.75515892  0.68488399  0.76783543     1.13500
C1213       C  0.77177612  0.59000196  0.84863660     1.04300
O1214       O  0.66489045  0.56746855  0.85386067    -0.95400
O1215       O  0.64026876  0.64436541  0.86292286    -0.91100
O1216       O  0.59167344  0.65410453  0.84580732    -0.84300
C1217       C  0.60697427  0.65159262  0.86075693     1.10900
O1218       O  0.76929131  0.74009827  0.82718574    -0.97300
Zr1219     Zr  0.70824111  0.71906298  0.82234952     1.88900
O1220       O  0.61691425  0.72738235  0.83596839    -0.74000
O1221       O  0.70630227  0.64459038  0.87349296    -0.53300
O1222       O  0.71855517  0.74238197  0.85159182    -0.97900
O1223       O  0.72930569  0.76657981  0.80307094    -0.55100
O1224       O  0.66107985  0.76173725  0.82531989    -0.74500
C1225       C  0.63525365  0.75651548  0.83559753     0.97800
O1226       O  0.55381655  0.65727219  0.81493568    -0.63300
O1227       O  0.64901677  0.64743372  0.75208652    -0.58100
O1228       O  0.58101523  0.70501347  0.79762104    -0.94800
O1229       O  0.61234275  0.70637558  0.77235819    -0.93200
O1230       O  0.63373024  0.56527498  0.77199768    -0.93600
O1231       O  0.60694526  0.54687170  0.80186267    -0.92400
C1232       C  0.58438485  0.71383691  0.78156606     1.16700
H1233       H  0.70798912  0.61177307  0.77401391     0.32600
H1234       H  0.62185054  0.59864292  0.83028587     0.43500
H1235       H  0.64646302  0.73247648  0.79949414     0.37000
H1236       H  0.75318818  0.66518937  0.83850353     0.33500
H1237       H  0.66499427  0.50666599  0.80939789     0.25300
H1238       H  0.70872670  0.62248116  0.88067985     0.31200
H1239       H  0.72114594  0.76867040  0.84993655     0.37100
H1240       H  0.64889033  0.57655372  0.76298897     0.31600
H1241       H  0.63587657  0.66647182  0.74555398     0.30500
H1242       H  0.67561566  0.73071830  0.75202329     0.32100
H1243       H  0.71982285  0.78908723  0.80807990     0.31100
H1244       H  0.58774599  0.56528088  0.80151418     0.35100
H1245       H  0.55172980  0.63207688  0.81904942     0.27800
H1246       H  0.82641938  0.61344019  0.80306945     0.32100
H1247       H  0.78451042  0.71860113  0.82547423     0.34900
H1248       H  0.67045632  0.64266182  0.74500156     0.27500
H1249       H  0.54083381  0.67167766  0.82363749     0.40400
H1250       H  0.66769294  0.56776944  0.86672632     0.30500
H1251       H  0.69946411  0.52376809  0.81755594     0.38100
H1252       H  0.71553137  0.76340068  0.79205781     0.29900
H1253       H  0.73092832  0.65412064  0.87244003     0.30000
H1254       H  0.82318382  0.64488925  0.81655387     0.30200
Zr1255     Zr  0.88636406  0.48889790  0.94930916     2.17500
O1256       O  0.88699143  0.55347363  0.95443533    -0.52100
O1257       O  0.83570137  0.49257569  0.96937447    -0.75300
O1258       O  0.85742146  0.52356461  0.92313783    -0.82100
O1259       O  0.93314392  0.46132945  0.98979374    -0.83800
O1260       O  0.85382030  0.48655978  0.89961940    -0.79500
O1261       O  0.93356614  0.50732837  0.97096303    -0.91100
O1262       O  0.80897582  0.43765985  0.96996323    -0.77100
O1263       O  0.84962903  0.44745585  0.93364163    -0.86600
O1264       O  0.88228907  0.43531075  0.96748965    -0.86200
O1265       O  0.91775995  0.47583834  0.92288049    -0.73000
O1266       O  0.94411170  0.46122734  0.95485455    -0.85100
Zr1267     Zr  0.93303039  0.35829674  0.93093081     2.26400
Zr1268     Zr  0.88206286  0.43174178  0.90783619     2.06300
Zr1269     Zr  0.94011460  0.40728054  0.97272847     2.10000
Zr1270     Zr  0.84330722  0.39623869  0.95219349     1.78800
O1271       O  0.99818683  0.41856508  0.98657114    -0.93900
O1272       O  0.78552941  0.39854328  0.93694181    -0.41700
O1273       O  0.90086319  0.36832862  0.95725487    -0.78400
O1274       O  0.87319044  0.38004382  0.92580456    -0.97100
O1275       O  0.94080192  0.41034041  0.91332275    -0.90400
O1276       O  0.97119337  0.39806616  0.94659263    -0.93200
C1277       C  0.81188609  0.47044961  0.97492933     1.00500
C1278       C  0.94562188  0.49166270  0.98503705     1.13500
C1279       C  0.84814266  0.51666360  0.90685085     1.04300
O1280       O  0.82483625  0.41006783  0.89650484    -0.95400
O1281       O  0.90118540  0.38630644  0.88736476    -0.91100
O1282       O  0.91196800  0.33629620  0.90330677    -0.84300
C1283       C  0.90916487  0.35289893  0.88873917     1.10900
O1284       O  0.99489790  0.51427739  0.92617509    -0.97300
Zr1285     Zr  0.97629408  0.45179286  0.92932383     1.88900
O1286       O  0.98566319  0.36192373  0.91269116    -0.74000
O1287       O  0.90129634  0.45481627  0.87952006    -0.53300
O1288       O  0.99496544  0.46875915  0.90008807    -0.97900
O1289       O  0.02581588  0.46896083  0.94852013    -0.55100
O1290       O  0.01990159  0.40720628  0.92289093    -0.74500
C1291       C  0.01404113  0.38113269  0.91264544     0.97800
O1292       O  0.91983317  0.29438302  0.93375557    -0.63300
O1293       O  0.91613651  0.38288132  0.99974303    -0.58100
O1294       O  0.96947053  0.31918277  0.94894310    -0.94800
O1295       O  0.97146136  0.34651285  0.97541297    -0.93200
O1296       O  0.83339445  0.36549789  0.97985190    -0.93600
O1297       O  0.81617317  0.33722706  0.94883145    -0.92400
C1298       C  0.97923178  0.31998203  0.96501131     1.16700
H1299       H  0.87317418  0.44044475  0.97894090     0.32600
H1300       H  0.85893915  0.36241070  0.91964142     0.43500
H1301       H  0.99409576  0.38736877  0.94941168     0.37000
H1302       H  0.92004071  0.49719238  0.91574214     0.33500
H1303       H  0.76781309  0.40339035  0.94615041     0.25300
H1304       H  0.87927799  0.45799184  0.87234407     0.31200
H1305       H  0.02147967  0.46828556  0.90060037     0.37100
H1306       H  0.84541527  0.38070329  0.98872128     0.31600
H1307       H  0.93757902  0.37668370  0.00689338     0.30500
H1308       H  0.00525473  0.39567347  0.99231225     0.32100
H1309       H  0.04734513  0.46726004  0.94116050     0.31100
H1310       H  0.83641327  0.32015399  0.95023079     0.35100
H1311       H  0.89350921  0.29271364  0.93226010     0.27800
H1312       H  0.86174459  0.56126542  0.95296055     0.32100
H1313       H  0.97552974  0.52643458  0.91943886     0.34900
H1314       H  0.90547197  0.40375151  0.00575972     0.27500
H1315       H  0.92968636  0.28248248  0.92334862     0.40400
H1316       H  0.81873583  0.42653818  0.88670522     0.30500
H1317       H  0.78587297  0.42085460  0.92984705     0.38100
H1318       H  0.02833109  0.44878213  0.95693465     0.29900
H1319       H  0.91038599  0.47946226  0.88163089     0.30000
H1320       H  0.89950226  0.56382170  0.94426117     0.30200
Zr1321     Zr  0.78363673  0.12854195  0.79971702     2.17500
O1322       O  0.71868779  0.12716507  0.79612949    -0.52100
O1323       O  0.77691750  0.07611925  0.78050288    -0.75300
O1324       O  0.76337542  0.17137664  0.77629515    -0.82100
O1325       O  0.78473646  0.09308422  0.84841100    -0.83800
O1326       O  0.81354400  0.17197043  0.76114790    -0.79500
O1327       O  0.74656657  0.10859440  0.82629982    -0.91100
O1328       O  0.83197674  0.05177662  0.77596367    -0.77100
O1329       O  0.83557012  0.12803050  0.78105795    -0.86600
O1330       O  0.82561612  0.08517855  0.81106316    -0.86200
O1331       O  0.81139300  0.18819811  0.79843036    -0.73000
O1332       O  0.80019803  0.14961625  0.82827814    -0.85100
Zr1333     Zr  0.91639180  0.16713541  0.81966574     2.26400
Zr1334     Zr  0.86391546  0.18656669  0.77977337     2.06300
Zr1335     Zr  0.84407275  0.10725846  0.83909596     2.10000
Zr1336     Zr  0.87644727  0.08496589  0.79237585     1.78800
O1337       O  0.83347904  0.09758563  0.87011202    -0.93900
O1338       O  0.89499297  0.08752693  0.76195405    -0.41700
O1339       O  0.89512206  0.10611907  0.82058931    -0.78400
O1340       O  0.90464787  0.14305165  0.79138562    -0.97100
O1341       O  0.87547807  0.20963257  0.80802407    -0.90400
O1342       O  0.86619614  0.16753666  0.83868921    -0.93200
C1343       C  0.79804372  0.05318517  0.77340896     1.00500
C1344       C  0.75302631  0.09693425  0.84226518     1.13500
C1345       C  0.78255943  0.18480568  0.76395230     1.04300
O1346       O  0.88779899  0.17629903  0.75077814    -0.95400
O1347       O  0.92415130  0.21660816  0.77731859    -0.91100
O1348       O  0.95723190  0.19947498  0.80095392    -0.84300
C1349       C  0.95366512  0.21677649  0.78653993     1.10900
O1350       O  0.76333081  0.22923575  0.83013027    -0.97300
Zr1351     Zr  0.82485421  0.20882763  0.82671269     1.88900
O1352       O  0.92546570  0.22637157  0.83143856    -0.74000
O1353       O  0.85083554  0.24858980  0.77156055    -0.53300
O1354       O  0.80790085  0.26664985  0.81398811    -0.97900
O1355       O  0.81210595  0.21487769  0.85773460    -0.55100
O1356       O  0.87028039  0.24835164  0.83733874    -0.74500
C1357       C  0.90440160  0.25032464  0.83739232     0.97800
O1358       O  0.97831214  0.14752842  0.82381013    -0.63300
O1359       O  0.85601178  0.04284189  0.83844472    -0.58100
O1360       O  0.93214482  0.15116571  0.84870626    -0.94800
O1361       O  0.89158326  0.11318472  0.86078859    -0.93200
O1362       O  0.88321513  0.02386379  0.80359717    -0.93600
O1363       O  0.93542190  0.05702484  0.79113974    -0.92400
C1364       C  0.92065979  0.13131760  0.86103360     1.16700
H1365       H  0.81472782  0.06163617  0.81190157     0.32600
H1366       H  0.92632240  0.14205676  0.78460826     0.43500
H1367       H  0.87199871  0.17610017  0.85026621     0.37000
H1368       H  0.79571666  0.20732088  0.79449033     0.33500
H1369       H  0.92093603  0.09301520  0.76228106     0.25300
H1370       H  0.84651452  0.24816353  0.75879731     0.31200
H1371       H  0.80825412  0.28361254  0.82391509     0.37100
H1372       H  0.87718268  0.00808066  0.79361622     0.31600
H1373       H  0.87227575  0.03836364  0.84854292     0.30500
H1374       H  0.83638915  0.07139220  0.87205776     0.32100
H1375       H  0.83420749  0.22458086  0.86321203     0.31100
H1376       H  0.95150467  0.07409864  0.79726226     0.35100
H1377       H  0.99258684  0.16968067  0.82554182     0.27800
H1378       H  0.71433248  0.12092092  0.78372871     0.32100
H1379       H  0.75050953  0.20821120  0.83493550     0.34900
H1380       H  0.83308039  0.03157847  0.84182051     0.27500
H1381       H  0.98570223  0.13804987  0.81235166     0.40400
H1382       H  0.88488927  0.19961118  0.74461818     0.30500
H1383       H  0.89356972  0.06244008  0.75777787     0.38100
H1384       H  0.81089015  0.18984297  0.86208180     0.29900
H1385       H  0.82729707  0.25405083  0.77670474     0.30000
H1386       H  0.71082572  0.15250007  0.79713884     0.30200
Zr1387     Zr  0.64125280  0.00442174  0.94296354     2.17500
O1388       O  0.63694084  0.06982781  0.94302114    -0.52100
O1389       O  0.68977011  0.02052357  0.96336344    -0.75300
O1390       O  0.59477853  0.02475201  0.96426237    -0.82100
O1391       O  0.68121947  0.99553890  0.89514368    -0.83800
O1392       O  0.60097809  0.97658578  0.98080053    -0.79500
O1393       O  0.66271897  0.03692518  0.91475371    -0.91100
O1394       O  0.71328309  0.96815496  0.97387529    -0.77100
O1395       O  0.64162622  0.95624904  0.96462004    -0.86600
O1396       O  0.68937608  0.96359696  0.93640871    -0.86200
O1397       O  0.58342850  0.97278739  0.94335956    -0.73000
O1398       O  0.62692411  0.98016525  0.91483084    -0.85100
Zr1399     Zr  0.61743013  0.86447051  0.92948665     2.26400
Zr1400     Zr  0.58535179  0.92360822  0.96474119     2.06300
Zr1401     Zr  0.67382749  0.93787999  0.90860045     2.10000
Zr1402     Zr  0.68944427  0.91707967  0.95825218     1.78800
O1403       O  0.69042509  0.94525935  0.87811794    -0.93900
O1404       O  0.68612294  0.90108806  0.98912174    -0.41700
O1405       O  0.67626848  0.89122802  0.93015286    -0.78400
O1406       O  0.63369561  0.88458557  0.95811662    -0.97100
O1407       O  0.57005872  0.90406341  0.93645618    -0.90400
O1408       O  0.61586632  0.91093896  0.90786252    -0.93200
C1409       C  0.71096583  0.00247461  0.97347336     1.00500
C1410       C  0.67568933  0.02810937  0.89941080     1.13500
C1411       C  0.58434709  0.00558753  0.97736522     1.04300
O1412       O  0.58593228  0.90461159  0.99520723    -0.95400
O1413       O  0.55722512  0.86193076  0.96794726    -0.91100
O1414       O  0.58084551  0.82556831  0.94736308    -0.84300
C1415       C  0.56005745  0.83082146  0.96031202     1.10900
O1416       O  0.54942144  0.01012261  0.90552576    -0.97300
Zr1417     Zr  0.56997634  0.95111152  0.91521630     1.88900
O1418       O  0.56239069  0.84740569  0.91452793    -0.74000
O1419       O  0.52348709  0.94125537  0.96956888    -0.53300
O1420       O  0.50928889  0.96905085  0.92255626    -0.97900
O1421       O  0.56789394  0.95393577  0.88338742    -0.55100
O1422       O  0.53441123  0.90007997  0.90774987    -0.74500
C1423       C  0.53607223  0.86579323  0.90824480     0.97800
O1424       O  0.64659199  0.80679584  0.93497782    -0.63300
O1425       O  0.73863515  0.93000035  0.91077676    -0.58100
O1426       O  0.63829683  0.84363861  0.90202098    -0.94800
O1427       O  0.67000148  0.88771312  0.88856970    -0.93200
O1428       O  0.75414530  0.91436995  0.95441928    -0.93600
O1429       O  0.71905854  0.85946514  0.96326772    -0.92400
C1430       C  0.65527543  0.85672090  0.88906488     1.16700
H1431       H  0.71207003  0.97608965  0.93607607     0.32600
H1432       H  0.63485861  0.86466602  0.96622744     0.43500
H1433       H  0.60886028  0.90226662  0.89651481     0.37000
H1434       H  0.56334748  0.98801335  0.94558989     0.33500
H1435       H  0.71141312  0.89949155  0.99314705     0.25300
H1436       H  0.50922791  0.92472748  0.96216830     0.31200
H1437       H  0.50503986  0.95806093  0.93413564     0.37100
H1438       H  0.76207225  0.93967491  0.95349164     0.31600
H1439       H  0.74845397  0.95437560  0.91272576     0.30500
H1440       H  0.71601615  0.93834474  0.87758451     0.32100
H1441       H  0.56232424  0.92924548  0.87943601     0.31100
H1442       H  0.70866315  0.84331369  0.95431941     0.35100
H1443       H  0.63719725  0.79059591  0.92579970     0.27800
H1444       H  0.64120789  0.07692983  0.95531935     0.32100
H1445       H  0.56546051  0.02723201  0.91164645     0.34900
H1446       H  0.74302627  0.91690226  0.92185805     0.27500
H1447       H  0.67199494  0.81073368  0.93195039     0.40400
H1448       H  0.60886177  0.89149765  0.99675393     0.30500
H1449       H  0.67672291  0.92284138  0.99489638     0.38100
H1450       H  0.59304598  0.95790992  0.87995431     0.29900
H1451       H  0.51860650  0.93330608  0.98166621     0.30000
H1452       H  0.61131660  0.07522187  0.94073726     0.30200
Zr1453     Zr  0.25329853  0.39594280  0.80063460     2.17500
O1454       O  0.31806333  0.40101607  0.79778370    -0.52100
O1455       O  0.26129606  0.44595147  0.77958475    -0.75300
O1456       O  0.27479245  0.35106381  0.77877329    -0.82100
O1457       O  0.24661166  0.43092400  0.84979724    -0.83800
O1458       O  0.22562849  0.34959991  0.76203873    -0.79500
O1459       O  0.28719878  0.41506612  0.82940570    -0.91100
O1460       O  0.20643029  0.46822187  0.77212200    -0.77100
O1461       O  0.20278994  0.39345463  0.78027737    -0.86600
O1462       O  0.21011602  0.44010780  0.80927987    -0.86200
O1463       O  0.22615868  0.33576898  0.79992883    -0.73000
O1464       O  0.23381846  0.37816495  0.82904902    -0.85100
Zr1465     Zr  0.11932692  0.35852893  0.81702996     2.26400
Zr1466     Zr  0.17482409  0.33443053  0.77970330     2.06300
Zr1467     Zr  0.18848458  0.42064430  0.83716996     2.10000
Zr1468     Zr  0.16113508  0.43772458  0.78874766     1.78800
O1469       O  0.19496942  0.44540556  0.86647129    -0.93900
O1470       O  0.14144118  0.43360550  0.75836639    -0.41700
O1471       O  0.13970404  0.41973305  0.81689640    -0.78400
O1472       O  0.13360885  0.37925311  0.78840594    -0.97100
O1473       O  0.16179773  0.31544428  0.80813968    -0.90400
O1474       O  0.16745839  0.36000081  0.83787227    -0.93200
C1475       C  0.24052644  0.46725290  0.77075583     1.00500
C1476       C  0.27904216  0.42647429  0.84522773     1.13500
C1477       C  0.25685506  0.33776136  0.76574509     1.04300
O1478       O  0.15309168  0.33405762  0.74959406    -0.95400
O1479       O  0.11297411  0.30499288  0.77745208    -0.91100
O1480       O  0.07859612  0.32324344  0.79994790    -0.84300
C1481       C  0.08289593  0.30505502  0.78604724     1.10900
O1482       O  0.27350534  0.30700895  0.83567159    -0.97300
Zr1483     Zr  0.21073749  0.31854051  0.82843682     1.88900
O1484       O  0.11065907  0.29828904  0.82849511    -0.74000
O1485       O  0.19200098  0.27226647  0.77430623    -0.53300
O1486       O  0.23503930  0.26073819  0.81954138    -0.97900
O1487       O  0.21344889  0.31370466  0.86030999    -0.55100
O1488       O  0.16572539  0.27551993  0.83485279    -0.74500
C1489       C  0.13166670  0.27327013  0.83402028     0.97800
O1490       O  0.05853435  0.38140198  0.81314852    -0.63300
O1491       O  0.17134931  0.48275844  0.83121756    -0.58100
O1492       O  0.09877451  0.37578314  0.84490830    -0.94800
O1493       O  0.14090026  0.41104049  0.85800509    -0.93200
O1494       O  0.15505189  0.50150892  0.79519601    -0.93600
O1495       O  0.10163281  0.46436033  0.78642523    -0.92400
C1496       C  0.11107684  0.39406069  0.85767498     1.16700
H1497       H  0.22079648  0.46363949  0.80979455     0.32600
H1498       H  0.11261360  0.37941226  0.78093556     0.43500
H1499       H  0.16071155  0.35164157  0.84931550     0.37000
H1500       H  0.24229856  0.31661967  0.79708606     0.33500
H1501       H  0.14034644  0.45882779  0.75419535     0.25300
H1502       H  0.19970663  0.27189568  0.76199269     0.31200
H1503       H  0.23205028  0.24480135  0.82981587     0.37100
H1504       H  0.15618346  0.51379382  0.78370367     0.31600
H1505       H  0.15102275  0.48736724  0.83904876     0.30500
H1506       H  0.18952208  0.47137276  0.86537490     0.32100
H1507       H  0.23647433  0.30171048  0.86319513     0.31100
H1508       H  0.08520809  0.44492618  0.79004027     0.35100
H1509       H  0.06034728  0.40750617  0.81540849     0.27800
H1510       H  0.32187125  0.40870947  0.78554500     0.32100
H1511       H  0.28702485  0.32046069  0.82672844     0.34900
H1512       H  0.19128039  0.49742034  0.83601587     0.27500
H1513       H  0.04466173  0.37153012  0.82299124     0.40400
H1514       H  0.13552107  0.35400355  0.74894542     0.30500
H1515       H  0.16209081  0.42307445  0.75219883     0.38100
H1516       H  0.19505589  0.29580496  0.86351103     0.29900
H1517       H  0.21416045  0.26816517  0.78126726     0.30000
H1518       H  0.32722454  0.37604126  0.79834519     0.30200
Zr1519     Zr  0.38640804  0.52688577  0.94763403     2.17500
O1520       O  0.38539459  0.46170397  0.95105084    -0.52100
O1521       O  0.33565540  0.51978996  0.96787382    -0.75300
O1522       O  0.42992634  0.50663923  0.97066758    -0.82100
O1523       O  0.35062920  0.53003563  0.89836422    -0.83800
O1524       O  0.42839033  0.55720482  0.98560927    -0.79500
O1525       O  0.36567918  0.49084326  0.92006053    -0.91100
O1526       O  0.31025407  0.57462156  0.97228374    -0.77100
O1527       O  0.38765156  0.57898016  0.96671518    -0.86600
O1528       O  0.34199023  0.56900570  0.93755385    -0.86200
O1529       O  0.44620332  0.55511871  0.94890822    -0.73000
O1530       O  0.40536907  0.54464191  0.91907393    -0.85100
Zr1531     Zr  0.42212173  0.66131603  0.92890910     2.26400
Zr1532     Zr  0.44597752  0.60765143  0.96794829     2.06300
Zr1533     Zr  0.36220821  0.58868832  0.90956320     2.10000
Zr1534     Zr  0.34324667  0.61978384  0.95670452     1.78800
O1535       O  0.33897678  0.58006933  0.87994406    -0.93900
O1536       O  0.34066048  0.63442445  0.98766125    -0.41700
O1537       O  0.36157790  0.63950366  0.92836933    -0.78400
O1538       O  0.40119547  0.64795651  0.95748100    -0.97100
O1539       O  0.46587079  0.62019596  0.93953345    -0.90400
O1540       O  0.42220603  0.61107072  0.90953521    -0.93200
C1541       C  0.31255493  0.54076836  0.97503219     1.00500
C1542       C  0.35403031  0.49799811  0.90403669     1.13500
C1543       C  0.44225327  0.52644832  0.98314329     1.04300
O1544       O  0.44021429  0.63230464  0.99715876    -0.95400
O1545       O  0.47569191  0.66917826  0.96967177    -0.91100
O1546       O  0.45580865  0.70286657  0.94671990    -0.84300
C1547       C  0.47451234  0.69919999  0.96074912     1.10900
O1548       O  0.47777580  0.50555978  0.91852652    -0.97300
Zr1549     Zr  0.46432468  0.56949561  0.92052589     1.88900
O1550       O  0.48085244  0.67191529  0.91719136    -0.74000
O1551       O  0.50613920  0.58768281  0.97608669    -0.53300
O1552       O  0.52455836  0.55265730  0.93009521    -0.97900
O1553       O  0.47202597  0.55421033  0.88987471    -0.55100
O1554       O  0.50258676  0.61664130  0.91061875    -0.74500
C1555       C  0.50490208  0.65090983  0.91124559     0.97800
O1556       O  0.39685726  0.72178568  0.92904648    -0.63300
O1557       O  0.29907613  0.60278686  0.91295354    -0.58100
O1558       O  0.40566582  0.67855690  0.90002188    -0.94800
O1559       O  0.37140563  0.63456066  0.88777404    -0.93200
O1560       O  0.28309333  0.63128167  0.94527624    -0.93600
O1561       O  0.32060940  0.68043825  0.96120480    -0.92400
C1562       C  0.38814331  0.66442873  0.88743622     1.16700
H1563       H  0.31865334  0.55792946  0.93687327     0.32600
H1564       H  0.40060156  0.66939411  0.96454550     0.43500
H1565       H  0.43084175  0.61705930  0.89808774     0.37000
H1566       H  0.46546378  0.53941866  0.95251407     0.33500
H1567       H  0.35236027  0.61389175  0.99375504     0.25300
H1568       H  0.51763007  0.58182555  0.96487143     0.31200
H1569       H  0.53710418  0.54608887  0.91923972     0.37100
H1570       H  0.26918242  0.60951803  0.94824532     0.31600
H1571       H  0.29548064  0.62540895  0.90628583     0.30500
H1572       H  0.36007995  0.57506499  0.87261940     0.32100
H1573       H  0.49810778  0.55632029  0.88795326     0.31100
H1574       H  0.33924005  0.69639548  0.95635498     0.35100
H1575       H  0.37246540  0.71923586  0.92397697     0.27800
H1576       H  0.38133711  0.45732186  0.96364019     0.32100
H1577       H  0.45843016  0.49354928  0.92506730     0.34900
H1578       H  0.28628931  0.58432298  0.90601928     0.27500
H1579       H  0.41039371  0.73545607  0.92018612     0.40400
H1580       H  0.46483358  0.63169354  0.00212351     0.30500
H1581       H  0.35762092  0.65456995  0.98928026     0.38100
H1582       H  0.46138933  0.57423668  0.88303473     0.29900
H1583       H  0.51855500  0.60962862  0.98015827     0.30000
H1584       H  0.41035525  0.45380062  0.94908377     0.30200
Zr1585     Zr  0.14442398  0.49479704  0.43882378     2.17500
O1586       O  0.13675004  0.55960492  0.44128388    -0.52100
O1587       O  0.19789595  0.49843511  0.45777067    -0.75300
O1588       O  0.10967640  0.50854770  0.46586062    -0.82100
O1589       O  0.16127242  0.50731396  0.38799981    -0.83800
O1590       O  0.11096416  0.45571520  0.48025388    -0.79500
O1591       O  0.17519036  0.53176370  0.41437284    -0.91100
O1592       O  0.22822445  0.44559587  0.45579425    -0.77100
O1593       O  0.15693992  0.43941108  0.45428876    -0.86600
O1594       O  0.18051554  0.45888199  0.42027443    -0.86200
O1595       O  0.08831890  0.46225651  0.44395816    -0.73000
O1596       O  0.10804388  0.48408194  0.41310802    -0.85100
Zr1597     Zr  0.10481462  0.36426684  0.41580608     2.26400
Zr1598     Zr  0.10199465  0.40690108  0.45975098     2.06300
Zr1599     Zr  0.14399070  0.44721046  0.39483235     2.10000
Zr1600     Zr  0.19496683  0.40559754  0.43614164     1.78800
O1601       O  0.11429400  0.47696539  0.37017410    -0.93900
O1602       O  0.21273120  0.36903872  0.46131509    -0.41700
O1603       O  0.16090837  0.39306907  0.40988275    -0.78400
O1604       O  0.14073139  0.37279920  0.44165326    -0.97100
O1605       O  0.06787048  0.39879106  0.43409474    -0.90400
O1606       O  0.08876865  0.41778738  0.40024431    -0.93200
C1607       C  0.22401487  0.47735740  0.46203413     1.00500
C1608       C  0.17647383  0.53137696  0.39718221     1.13500
C1609       C  0.09911237  0.48783889  0.47849898     1.04300
O1610       O  0.13157681  0.37923642  0.48496822    -0.95400
O1611       O  0.07598848  0.34387706  0.46129355    -0.91100
O1612       O  0.08291443  0.31749208  0.43483878    -0.84300
C1613       C  0.07252117  0.31661926  0.45072305     1.10900
O1614       O  0.03334053  0.51438095  0.41426917    -0.97300
Zr1615     Zr  0.05318176  0.45254387  0.41874819     1.88900
O1616       O  0.04148124  0.35181338  0.41276828    -0.74000
O1617       O  0.04462721  0.41253767  0.47430198    -0.53300
O1618       O  0.00482504  0.46975450  0.43807857    -0.97900
O1619       O  0.02231486  0.45923241  0.39058045    -0.55100
O1620       O  0.01169743  0.40298285  0.41912914    -0.74500
C1621       C  0.01265722  0.36920685  0.41597619     0.97800
O1622       O  0.13090831  0.30552848  0.40997162    -0.63300
O1623       O  0.20042910  0.43815662  0.37980697    -0.58100
O1624       O  0.10584205  0.35495075  0.38461895    -0.94800
O1625       O  0.12971506  0.40472028  0.37222419    -0.93200
O1626       O  0.25074116  0.41752035  0.42100580    -0.93600
O1627       O  0.22533995  0.35103779  0.42690041    -0.92400
C1628       C  0.11553431  0.37355444  0.37135219     1.16700
H1629       H  0.20232291  0.47090026  0.41729106     0.32600
H1630       H  0.14633182  0.34986517  0.44705411     0.43500
H1631       H  0.07479838  0.41308261  0.38980889     0.37000
H1632       H  0.07043556  0.47541610  0.45030322     0.33500
H1633       H  0.23872942  0.37350833  0.46285881     0.25300
H1634       H  0.05071942  0.41642283  0.48677024     0.31200
H1635       H  0.98379449  0.47344416  0.43024287     0.37100
H1636       H  0.26981919  0.41309214  0.42987091     0.31600
H1637       H  0.20581142  0.46148184  0.37414714     0.30500
H1638       H  0.12975777  0.47221668  0.36002743     0.32100
H1639       H  0.01426669  0.43479280  0.38732114     0.31100
H1640       H  0.20602388  0.33568801  0.42206400     0.35100
H1641       H  0.11525246  0.29456486  0.40094793     0.27800
H1642       H  0.14045223  0.56512724  0.45380519     0.32100
H1643       H  0.05140831  0.52914810  0.42050229     0.34900
H1644       H  0.21867853  0.43566856  0.38922416     0.27500
H1645       H  0.15363061  0.31070957  0.40393194     0.40400
H1646       H  0.11195649  0.37424605  0.49320091     0.30500
H1647       H  0.20161222  0.38107301  0.47139390     0.38100
H1648       H  0.04117701  0.46531865  0.38209800     0.29900
H1649       H  0.03459281  0.43577462  0.47018585     0.30000
H1650       H  0.11088067  0.56378574  0.43904476     0.30200
Zr1651     Zr  0.29712295  0.63165842  0.30057211     2.17500
O1652       O  0.23184902  0.63256524  0.29881614    -0.52100
O1653       O  0.29039250  0.58085818  0.27981460    -0.75300
O1654       O  0.27561852  0.67554522  0.27785904    -0.82100
O1655       O  0.29918416  0.59913429  0.34956517    -0.83800
O1656       O  0.32385953  0.67803626  0.26098364    -0.79500
O1657       O  0.26091286  0.60647290  0.32655477    -0.91100
O1658       O  0.34545471  0.55648202  0.27530932    -0.77100
O1659       O  0.34848270  0.62762870  0.28167138    -0.86600
O1660       O  0.33824194  0.58922225  0.31339470    -0.86200
O1661       O  0.32644408  0.69070437  0.29817686    -0.73000
O1662       O  0.31528075  0.65628191  0.32837241    -0.85100
Zr1663     Zr  0.43190557  0.66775465  0.31834343     2.26400
Zr1664     Zr  0.37731397  0.68577116  0.27874093     2.06300
Zr1665     Zr  0.35817000  0.61477612  0.34052245     2.10000
Zr1666     Zr  0.38834541  0.58472883  0.29438650     1.78800
O1667       O  0.34175855  0.61602186  0.37119516    -0.93900
O1668       O  0.42029483  0.57578093  0.26718959    -0.41700
O1669       O  0.40809867  0.60859811  0.32170011    -0.78400
O1670       O  0.41715793  0.64200153  0.29080794    -0.97100
O1671       O  0.39173941  0.71048138  0.30619361    -0.90400
O1672       O  0.38316686  0.67338712  0.33810572    -0.93200
C1673       C  0.31178458  0.55855975  0.27228765     1.00500
C1674       C  0.26790204  0.59668905  0.34277843     1.13500
C1675       C  0.29291049  0.68971576  0.26499680     1.04300
O1676       O  0.39983002  0.66821622  0.25033006    -0.95400
O1677       O  0.43776810  0.71631717  0.27613828    -0.91100
O1678       O  0.47225301  0.69935313  0.29939424    -0.84300
C1679       C  0.46784041  0.71655346  0.28501852     1.10900
O1680       O  0.28108843  0.73519553  0.32833183    -0.97300
Zr1681     Zr  0.34254997  0.71421394  0.32555288     1.88900
O1682       O  0.44541981  0.72699034  0.32867646    -0.74000
O1683       O  0.36611508  0.74691956  0.26848473    -0.53300
O1684       O  0.32803586  0.77330350  0.31368406    -0.97900
O1685       O  0.33157230  0.72190713  0.35660407    -0.55100
O1686       O  0.39146247  0.75263958  0.33410445    -0.74500
C1687       C  0.42578750  0.75271967  0.33402478     0.97800
O1688       O  0.49075591  0.63924638  0.31897854    -0.63300
O1689       O  0.37405163  0.55150175  0.34372573    -0.58100
O1690       O  0.44943997  0.65483367  0.34754758    -0.94800
O1691       O  0.40635086  0.62293893  0.36159385    -0.93200
O1692       O  0.38314571  0.52495357  0.30729385    -0.93600
O1693       O  0.44503734  0.55279594  0.29800219    -0.92400
C1694       C  0.43670588  0.63877970  0.36084986     1.16700
H1695       H  0.32678591  0.56629191  0.31517699     0.32600
H1696       H  0.43824581  0.63965759  0.28374445     0.43500
H1697       H  0.38992430  0.68345772  0.34923073     0.37000
H1698       H  0.31153485  0.71030663  0.29440270     0.33500
H1699       H  0.42096414  0.54939867  0.26555978     0.25300
H1700       H  0.36017546  0.74449939  0.25591205     0.31200
H1701       H  0.34560266  0.77700184  0.30428104     0.37100
H1702       H  0.36393175  0.51282167  0.30056625     0.31600
H1703       H  0.39968831  0.55012962  0.34064422     0.30500
H1704       H  0.33890471  0.64188220  0.37388703     0.32100
H1705       H  0.30790855  0.71075989  0.35859160     0.31100
H1706       H  0.45790748  0.56561749  0.30747807     0.35100
H1707       H  0.49455260  0.63081068  0.30689880     0.27800
H1708       H  0.22568579  0.63074785  0.28623660     0.32100
H1709       H  0.26623998  0.71391025  0.32552372     0.34900
H1710       H  0.37393800  0.54715124  0.35649148     0.27500
H1711       H  0.50826259  0.65890264  0.32070652     0.40400
H1712       H  0.38788236  0.64504761  0.24781540     0.30500
H1713       H  0.40362338  0.58450566  0.25794594     0.38100
H1714       H  0.32741800  0.74804047  0.35797145     0.29900
H1715       H  0.34338160  0.75416215  0.27396104     0.30000
H1716       H  0.22495182  0.65731886  0.30210600     0.30200
Zr1717     Zr  0.89940062  0.01154163  0.44628242     2.17500
O1718       O  0.89245513  0.94753795  0.45238351    -0.52100
O1719       O  0.84908174  0.00801387  0.46723620    -0.75300
O1720       O  0.94582454  0.99399112  0.46864487    -0.82100
O1721       O  0.85978173  0.00965591  0.39823334    -0.83800
O1722       O  0.94685181  0.04664260  0.48184070    -0.79500
O1723       O  0.88299716  0.97269560  0.41918925    -0.91100
O1724       O  0.83214505  0.06502864  0.47400846    -0.77100
O1725       O  0.90514059  0.06535545  0.46385580    -0.86600
O1726       O  0.85407289  0.05374254  0.43708283    -0.86200
O1727       O  0.95958443  0.03745261  0.44362390    -0.73000
O1728       O  0.91318827  0.02715066  0.41678218    -0.85100
Zr1729     Zr  0.93432708  0.14275329  0.42195356     2.26400
Zr1730     Zr  0.96403707  0.09176443  0.46111495     2.06300
Zr1731     Zr  0.86883574  0.06998051  0.40780257     2.10000
Zr1732     Zr  0.86049641  0.10669900  0.45462713     1.78800
O1733       O  0.83868728  0.05846232  0.37989057    -0.93900
O1734       O  0.86984645  0.13037070  0.48396473    -0.41700
O1735       O  0.87359898  0.12276900  0.42511145    -0.78400
O1736       O  0.91876634  0.13316014  0.45176235    -0.97100
O1737       O  0.97831853  0.10128502  0.43165146    -0.90400
O1738       O  0.92909884  0.09037630  0.40400551    -0.93200
C1739       C  0.83058648  0.03097026  0.47601165     1.00500
C1740       C  0.86872818  0.97840435  0.40358375     1.13500
C1741       C  0.95960800  0.01517489  0.48022229     1.04300
O1742       O  0.97625620  0.11346418  0.49049382    -0.95400
O1743       O  0.99363512  0.15276595  0.46104141    -0.91100
O1744       O  0.96971848  0.18587005  0.43874334    -0.84300
C1745       C  0.99098891  0.18239330  0.45198655     1.10900
O1746       O  0.97684698  0.98529619  0.40745438    -0.97300
Zr1747     Zr  0.97283205  0.04921729  0.41397878     1.88900
O1748       O  0.99432494  0.14855725  0.41128995    -0.74000
O1749       O  0.02485306  0.06836551  0.46362132    -0.53300
O1750       O  0.02921835  0.02431188  0.42486317    -0.97900
O1751       O  0.97914099  0.03865699  0.38271404    -0.55100
O1752       O  0.01552897  0.09351892  0.40403304    -0.74500
C1753       C  0.01850864  0.12775144  0.40533533     0.97800
O1754       O  0.91074257  0.20308123  0.41680018    -0.63300
O1755       O  0.80648885  0.08384434  0.41402892    -0.58100
O1756       O  0.91511313  0.15554382  0.39266661    -0.94800
O1757       O  0.87328162  0.11393399  0.38480766    -0.93200
O1758       O  0.79669193  0.11386380  0.44830735    -0.93600
O1759       O  0.83484188  0.16683492  0.45583557    -0.92400
C1760       C  0.89225730  0.14181776  0.38204759     1.16700
H1761       H  0.83046200  0.04329564  0.43783568     0.32600
H1762       H  0.92019177  0.15529046  0.45824288     0.43500
H1763       H  0.93508591  0.09411208  0.39190029     0.37000
H1764       H  0.97822222  0.02140971  0.44702602     0.33500
H1765       H  0.88866295  0.11479220  0.48922831     0.25300
H1766       H  0.03755679  0.07919685  0.45363272     0.31200
H1767       H  0.04208121  0.01680024  0.41425966     0.37100
H1768       H  0.78484612  0.11159760  0.45975872     0.31600
H1769       H  0.80182288  0.10697218  0.40795533     0.30500
H1770       H  0.85788101  0.05337059  0.37142472     0.32100
H1771       H  0.00389552  0.02952368  0.38143936     0.31100
H1772       H  0.85397014  0.18278418  0.45146288     0.35100
H1773       H  0.90236202  0.21117028  0.42835457     0.27800
H1774       H  0.89435994  0.94517393  0.46525367     0.32100
H1775       H  0.96402307  0.97325553  0.41709010     0.34900
H1776       H  0.79239528  0.06595846  0.40733239     0.27500
H1777       H  0.93184890  0.21824479  0.41432244     0.40400
H1778       H  0.95491715  0.12793703  0.49342554     0.30500
H1779       H  0.88161264  0.15397896  0.48244262     0.38100
H1780       H  0.97950883  0.06267574  0.37711200     0.29900
H1781       H  0.03518479  0.08043368  0.47401510     0.30000
H1782       H  0.91459555  0.93626119  0.44799035     0.30200
Zr1783     Zr  0.77260642  0.88007696  0.30132784     2.17500
O1784       O  0.83755587  0.87339631  0.30081773    -0.52100
O1785       O  0.78564152  0.93185248  0.28224985    -0.75300
O1786       O  0.79153995  0.83529041  0.27902278    -0.82100
O1787       O  0.76836805  0.91546515  0.34974484    -0.83800
O1788       O  0.74212430  0.83994308  0.26326196    -0.79500
O1789       O  0.80785174  0.89763619  0.32919670    -0.91100
O1790       O  0.73323076  0.96144507  0.27674962    -0.77100
O1791       O  0.72252111  0.88160932  0.28074521    -0.86600
O1792       O  0.73268575  0.92738815  0.30998736    -0.86200
O1793       O  0.74203426  0.82157688  0.30075430    -0.73000
O1794       O  0.75090268  0.86419461  0.32956228    -0.85100
Zr1795     Zr  0.63590781  0.85310269  0.31753794     2.26400
Zr1796     Zr  0.69108041  0.82451072  0.28043933     2.06300
Zr1797     Zr  0.70938307  0.91006763  0.33772717     2.10000
Zr1798     Zr  0.68403348  0.92883274  0.28932668     1.78800
O1799       O  0.72504749  0.93252253  0.36671939    -0.93900
O1800       O  0.67280298  0.92978792  0.25787123    -0.41700
O1801       O  0.66083593  0.91263798  0.31730802    -0.78400
O1802       O  0.65262795  0.87224669  0.28892569    -0.97100
O1803       O  0.67517247  0.80674770  0.30886986    -0.90400
O1804       O  0.68383094  0.85113734  0.33855362    -0.93200
C1805       C  0.76705100  0.95736895  0.27513768     1.00500
C1806       C  0.80028306  0.90935946  0.34488530     1.13500
C1807       C  0.77138467  0.82364591  0.26649636     1.04300
O1808       O  0.67113084  0.82161087  0.25009610    -0.95400
O1809       O  0.62848848  0.79962119  0.27677445    -0.91100
O1810       O  0.59470826  0.82062121  0.29887886    -0.84300
C1811       C  0.59831062  0.80193263  0.28503556     1.10900
O1812       O  0.78657897  0.79251857  0.33579815    -0.97300
Zr1813     Zr  0.72405190  0.80636921  0.32922988     1.88900
O1814       O  0.62201072  0.79558854  0.33066360    -0.74000
O1815       O  0.70810618  0.76185169  0.27655022    -0.53300
O1816       O  0.74181533  0.74576987  0.32113901    -0.97900
O1817       O  0.73298926  0.80098497  0.36076056    -0.55100
O1818       O  0.67524367  0.76870141  0.33728465    -0.74500
C1819       C  0.64102924  0.76961684  0.33677668     0.97800
O1820       O  0.57680482  0.88090275  0.31706291    -0.63300
O1821       O  0.69734639  0.97414763  0.33432534    -0.58100
O1822       O  0.61673741  0.87342239  0.34528872    -0.94800
O1823       O  0.66127771  0.90547115  0.35840471    -0.93200
O1824       O  0.67560704  0.99068563  0.29869176    -0.93600
O1825       O  0.62580407  0.95640411  0.28331846    -0.92400
C1826       C  0.63016163  0.89125388  0.35797542     1.16700
H1827       H  0.74495216  0.95029407  0.31082056     0.32600
H1828       H  0.63197795  0.87377464  0.28124493     0.43500
H1829       H  0.67614458  0.84366524  0.34995667     0.37000
H1830       H  0.75727192  0.80163212  0.29785322     0.33500
H1831       H  0.67520281  0.95536935  0.25443147     0.25300
H1832       H  0.69329366  0.74845617  0.28498816     0.31200
H1833       H  0.72340092  0.73800758  0.31256305     0.37100
H1834       H  0.68060337  0.00550339  0.28822117     0.31600
H1835       H  0.67658804  0.97876188  0.34192045     0.30500
H1836       H  0.70734958  0.95153519  0.36933934     0.32100
H1837       H  0.71309558  0.78577847  0.36493056     0.31100
H1838       H  0.61259632  0.93887909  0.27600298     0.35100
H1839       H  0.57272039  0.88848118  0.30479378     0.27800
H1840       H  0.84440428  0.87835266  0.28859580     0.32100
H1841       H  0.80023094  0.80645476  0.32707615     0.34900
H1842       H  0.71772595  0.98616023  0.34028416     0.27500
H1843       H  0.55948978  0.86124236  0.31914135     0.40400
H1844       H  0.67329349  0.84658513  0.24571540     0.30500
H1845       H  0.69389674  0.91785467  0.25274134     0.38100
H1846       H  0.72773215  0.82514385  0.36541630     0.29900
H1847       H  0.69782621  0.75534727  0.26501323     0.30000
H1848       H  0.84206399  0.84735951  0.30255009     0.30200
Zr1849     Zr  0.39551297  0.98592942  0.44611161     2.17500
O1850       O  0.39192033  0.05016335  0.45194166    -0.52100
O1851       O  0.34308360  0.98644395  0.46510156    -0.75300
O1852       O  0.36849437  0.02116618  0.41984249    -0.82100
O1853       O  0.44126153  0.95911137  0.48776589    -0.83800
O1854       O  0.36964694  0.98540026  0.39591196    -0.79500
O1855       O  0.44146477  0.00479432  0.46862624    -0.91100
O1856       O  0.31826658  0.93050808  0.46469351    -0.77100
O1857       O  0.36255252  0.94471419  0.42828785    -0.86600
O1858       O  0.38877989  0.93132531  0.46332952    -0.86200
O1859       O  0.43199530  0.97510733  0.42092849    -0.73000
O1860       O  0.45237013  0.95914257  0.45349337    -0.85100
Zr1861     Zr  0.44774294  0.85777079  0.42787809     2.26400
Zr1862     Zr  0.39978899  0.93140951  0.40380067     2.06300
Zr1863     Zr  0.44571687  0.90486855  0.47048559     2.10000
Zr1864     Zr  0.35356005  0.89231766  0.44571121     1.78800
O1865       O  0.49498611  0.91308107  0.49122611    -0.93900
O1866       O  0.29723568  0.90073888  0.42968258    -0.41700
O1867       O  0.41070339  0.86526634  0.45287661    -0.78400
O1868       O  0.38858757  0.87864359  0.42058543    -0.97100
O1869       O  0.45771098  0.91121468  0.41158332    -0.90400
O1870       O  0.48238315  0.89705238  0.44579989    -0.93200
C1871       C  0.32006420  0.96304141  0.47020721     1.00500
C1872       C  0.45291290  0.98990050  0.48307377     1.13500
C1873       C  0.36151259  0.01476666  0.40329017     1.04300
O1874       O  0.34699445  0.90728517  0.38903254    -0.95400
O1875       O  0.42443019  0.88714995  0.38397850    -0.91100
O1876       O  0.43347543  0.83611604  0.39934637    -0.84300
C1877       C  0.43268063  0.85374035  0.38502294     1.10900
O1878       O  0.50620860  0.01508452  0.42925820    -0.97300
Zr1879     Zr  0.48978607  0.95175656  0.42971197     1.88900
O1880       O  0.50099590  0.86389351  0.41036808    -0.74000
O1881       O  0.42077556  0.95911572  0.37676678    -0.53300
O1882       O  0.51758810  0.97496430  0.40338542    -0.97900
O1883       O  0.53387157  0.96311825  0.45283855    -0.55100
O1884       O  0.53384606  0.90812302  0.42252027    -0.74500
C1885       C  0.52891120  0.88361556  0.41130010     0.97800
O1886       O  0.43394439  0.79392553  0.42508637    -0.63300
O1887       O  0.41026512  0.87756510  0.49348504    -0.58100
O1888       O  0.48189729  0.82048110  0.44778478    -0.94800
O1889       O  0.48012908  0.84746373  0.47430583    -0.93200
O1890       O  0.34205009  0.84998050  0.46930826    -0.93600
O1891       O  0.32190163  0.83778648  0.43721142    -0.92400
C1892       C  0.48964325  0.82156664  0.46407784     1.16700
H1893       H  0.37917293  0.93498541  0.47475641     0.32600
H1894       H  0.37607137  0.86107422  0.41353862     0.43500
H1895       H  0.50519901  0.88699379  0.44924474     0.37000
H1896       H  0.43520637  0.99704086  0.41431433     0.33500
H1897       H  0.29014282  0.92596691  0.43186326     0.25300
H1898       H  0.39947376  0.96225759  0.36907036     0.31200
H1899       H  0.54361093  0.97088460  0.40516930     0.37100
H1900       H  0.31900759  0.85791312  0.47425793     0.31600
H1901       H  0.41998388  0.85290044  0.49479683     0.30500
H1902       H  0.48847633  0.89840754  0.50152850     0.32100
H1903       H  0.55474185  0.94794602  0.44994384     0.31100
H1904       H  0.34103517  0.81994193  0.43505099     0.35100
H1905       H  0.45703324  0.78078533  0.42515506     0.27800
H1906       H  0.36642929  0.05661356  0.44998197     0.32100
H1907       H  0.53257752  0.01580273  0.43083336     0.34900
H1908       H  0.41802549  0.89004537  0.50427705     0.27500
H1909       H  0.42233889  0.78721480  0.43618033     0.40400
H1910       H  0.34625715  0.91967315  0.37755733     0.30500
H1911       H  0.30385430  0.90041428  0.41721417     0.38100
H1912       H  0.52385208  0.95178965  0.46343356     0.29900
H1913       H  0.42852449  0.98378861  0.37982313     0.30000
H1914       H  0.40479296  0.06182337  0.44221010     0.30200
Zr1915     Zr  0.26245640  0.13622336  0.30451410     2.17500
O1916       O  0.32678184  0.13941516  0.29976806    -0.52100
O1917       O  0.26692682  0.08318520  0.28541290    -0.75300
O1918       O  0.29670014  0.10578911  0.33040768    -0.82100
O1919       O  0.23139450  0.20195933  0.26825115    -0.83800
O1920       O  0.26345745  0.10886193  0.35502881    -0.79500
O1921       O  0.28218875  0.18059043  0.28155370    -0.91100
O1922       O  0.21405377  0.05302118  0.28674787    -0.77100
O1923       O  0.22418795  0.10043899  0.32201040    -0.86600
O1924       O  0.20896023  0.12519456  0.28695128    -0.86200
O1925       O  0.24920314  0.17276917  0.32960397    -0.73000
O1926       O  0.22972141  0.19069488  0.29821297    -0.85100
Zr1927     Zr  0.12983453  0.17855225  0.32315156     2.26400
Zr1928     Zr  0.20894781  0.13692245  0.34656679     2.06300
Zr1929     Zr  0.17682496  0.17961313  0.28068217     2.10000
Zr1930     Zr  0.17257402  0.08749698  0.30446004     1.78800
O1931       O  0.17052457  0.21802841  0.25493636    -0.93900
O1932       O  0.18252103  0.03217366  0.32095187    -0.41700
O1933       O  0.14013526  0.14209378  0.29799182    -0.78400
O1934       O  0.15661107  0.12150174  0.32997053    -0.97100
O1935       O  0.18137988  0.19300858  0.34007230    -0.90400
O1936       O  0.16612306  0.21546683  0.30520572    -0.93200
C1937       C  0.24576643  0.05743946  0.28080562     1.00500
C1938       C  0.26556558  0.20068104  0.27001990     1.13500
C1939       C  0.29143576  0.09914014  0.34708387     1.04300
O1940       O  0.18932681  0.08013337  0.35925721    -0.95400
O1941       O  0.16700548  0.15352499  0.36860075    -0.91100
O1942       O  0.11900347  0.17655603  0.35406983    -0.84300
C1943       C  0.13548020  0.16681468  0.36811201     1.10900
O1944       O  0.27666047  0.25759550  0.32551123    -0.97300
Zr1945     Zr  0.21857719  0.22829490  0.32225343     1.88900
O1946       O  0.11772470  0.24150516  0.32795904    -0.74000
O1947       O  0.23587849  0.16369401  0.37265309    -0.53300
O1948       O  0.22883411  0.24844276  0.35217770    -0.97900
O1949       O  0.23542022  0.27182204  0.29994430    -0.55100
O1950       O  0.17038742  0.27126500  0.32570423    -0.74500
C1951       C  0.13618334  0.27043845  0.32730569     0.97800
O1952       O  0.07016312  0.15446062  0.32833271    -0.63300
O1953       O  0.16097849  0.13661932  0.25800322    -0.58100
O1954       O  0.08556674  0.19979035  0.30258481    -0.94800
O1955       O  0.11693890  0.21082457  0.27793640    -0.93200
O1956       O  0.13751921  0.07248763  0.27841693    -0.93600
O1957       O  0.11712633  0.05537969  0.31011827    -0.92400
C1958       C  0.08823088  0.21326816  0.28728082     1.16700
H1959       H  0.21389693  0.11551304  0.27562784     0.32600
H1960       H  0.14046978  0.10763968  0.33709390     0.43500
H1961       H  0.15486247  0.23692637  0.30062763     0.37000
H1962       H  0.27086467  0.17774982  0.33618801     0.33500
H1963       H  0.17592159  0.01273702  0.31273100     0.25300
H1964       H  0.23951322  0.14369515  0.38108845     0.31200
H1965       H  0.20758162  0.26313374  0.35506602     0.37100
H1966       H  0.15117483  0.05339891  0.27246482     0.31600
H1967       H  0.13781160  0.14544989  0.25321193     0.30500
H1968       H  0.17308311  0.24285590  0.25938950     0.32100
H1969       H  0.23129464  0.29564977  0.30522400     0.31100
H1970       H  0.10073692  0.07389311  0.31474016     0.35100
H1971       H  0.05695602  0.17414610  0.33409469     0.27800
H1972       H  0.33555940  0.11444790  0.30132597     0.32100
H1973       H  0.27170569  0.28125067  0.33086053     0.34900
H1974       H  0.17834024  0.14120585  0.24858479     0.27500
H1975       H  0.07337111  0.13584771  0.33751211     0.40400
H1976       H  0.20882450  0.07266967  0.36738229     0.30500
H1977       H  0.20887372  0.03021473  0.32210872     0.38100
H1978       H  0.21657204  0.26971318  0.29078593     0.29900
H1979       H  0.26028116  0.17125890  0.36932749     0.30000
H1980       H  0.33648248  0.15258269  0.30998328     0.30200
Zr1981     Zr  0.65950964  0.52464186  0.44643853     2.17500
O1982       O  0.65228879  0.45998211  0.45027803    -0.52100
O1983       O  0.71010114  0.51302524  0.46663218    -0.75300
O1984       O  0.68299619  0.48981811  0.41941722    -0.82100
O1985       O  0.61291513  0.55278720  0.48750703    -0.83800
O1986       O  0.68681003  0.52929210  0.39685775    -0.79500
O1987       O  0.60947439  0.51004723  0.46709632    -0.91100
O1988       O  0.74165702  0.56514143  0.46843916    -0.77100
O1989       O  0.69947154  0.56368374  0.43130364    -0.86600
O1990       O  0.67084967  0.57529950  0.46574984    -0.86200
O1991       O  0.62763438  0.54460021  0.42061569    -0.73000
O1992       O  0.60643593  0.55850072  0.45290982    -0.85100
Zr1993     Zr  0.62589635  0.66251935  0.43101713     2.26400
Zr1994     Zr  0.66681087  0.58647529  0.40630499     2.06300
Zr1995     Zr  0.61751808  0.60925770  0.47185329     2.10000
Zr1996     Zr  0.71271765  0.61163136  0.45080780     1.78800
O1997       O  0.56710068  0.60732082  0.49164783    -0.93900
O1998       O  0.76439223  0.59708566  0.43308193    -0.41700
O1999       O  0.65922971  0.64596383  0.45694810    -0.78400
O2000       O  0.68267539  0.63485540  0.42517023    -0.97100
O2001       O  0.61118591  0.61319439  0.41274077    -0.90400
O2002       O  0.58527538  0.62489246  0.44625027    -0.93200
C2003       C  0.73584106  0.53236422  0.47282583     1.00500
C2004       C  0.59807814  0.52451337  0.48144489     1.13500
C2005       C  0.69107942  0.49789538  0.40316527     1.04300
O2006       O  0.72539093  0.60468993  0.39586038    -0.95400
O2007       O  0.64797194  0.63501462  0.38687987    -0.91100
O2008       O  0.64603062  0.68469160  0.40331880    -0.84300
C2009       C  0.64366773  0.66897594  0.38862272     1.10900
O2010       O  0.54574072  0.51526304  0.42364285    -0.97300
Zr2011     Zr  0.57274092  0.57411362  0.42828724     1.88900
O2012       O  0.57116298  0.66614931  0.41321290    -0.74000
O2013       O  0.64655374  0.56995303  0.37695796    -0.53300
O2014       O  0.54696852  0.56147702  0.39965194    -0.97900
O2015       O  0.52934379  0.56031537  0.45087877    -0.55100
O2016       O  0.53345271  0.62381998  0.42333887    -0.74500
C2017       C  0.54084713  0.65001848  0.41334391     0.97800
O2018       O  0.64758088  0.72432639  0.43317587    -0.63300
O2019       O  0.65437026  0.62968050  0.49634563    -0.58100
O2020       O  0.59255170  0.70111022  0.45003805    -0.94800
O2021       O  0.58501677  0.66860038  0.47495804    -0.93200
O2022       O  0.73944804  0.63690500  0.47723334    -0.93600
O2023       O  0.74613861  0.66764639  0.44881333    -0.92400
C2024       C  0.57982086  0.69720528  0.46536768     1.16700
H2025       H  0.67929001  0.56781072  0.47716837     0.32600
H2026       H  0.69821832  0.65156476  0.41924965     0.43500
H2027       H  0.56344411  0.63676251  0.44938657     0.37000
H2028       H  0.62210871  0.52457556  0.41309666     0.33500
H2029       H  0.76832356  0.61864408  0.42571675     0.25300
H2030       H  0.66814031  0.56306948  0.37037824     0.31200
H2031       H  0.56710352  0.55136005  0.39294276     0.37100
H2032       H  0.76476110  0.62882217  0.47730117     0.31600
H2033       H  0.64883259  0.61269823  0.50592577     0.30500
H2034       H  0.57709017  0.61538042  0.50300869     0.32100
H2035       H  0.50765025  0.57421023  0.44754838     0.31100
H2036       H  0.72873869  0.68532605  0.44398994     0.35100
H2037       H  0.65780231  0.72586381  0.44514663     0.27800
H2038       H  0.67680010  0.44993363  0.44950800     0.32100
H2039       H  0.51950080  0.51926423  0.42361092     0.34900
H2040       H  0.67929173  0.62373424  0.49317720     0.27500
H2041       H  0.66892423  0.72585520  0.42568077     0.40400
H2042       H  0.72091069  0.62704304  0.38910109     0.30500
H2043       H  0.78485394  0.59684819  0.44143203     0.38100
H2044       H  0.53854533  0.57234821  0.46152686     0.29900
H2045       H  0.63257019  0.54752244  0.37829295     0.30000
H2046       H  0.63983214  0.45174267  0.43952988     0.30200
Zr2047     Zr  0.78709172  0.38068242  0.30351871     2.17500
O2048       O  0.72330729  0.37766760  0.29666720    -0.52100
O2049       O  0.78519004  0.43218149  0.28333767    -0.75300
O2050       O  0.75099329  0.40999125  0.32875550    -0.82100
O2051       O  0.82148384  0.33719249  0.26389797    -0.83800
O2052       O  0.78161088  0.40423875  0.35450842    -0.79500
O2053       O  0.77310588  0.33400586  0.28072784    -0.91100
O2054       O  0.83893429  0.46097415  0.28537893    -0.77100
O2055       O  0.82513354  0.41699865  0.32132034    -0.86600
O2056       O  0.84298480  0.38864278  0.28805508    -0.86200
O2057       O  0.79700368  0.34566022  0.32951549    -0.73000
O2058       O  0.81739038  0.32442395  0.29824791    -0.85100
Zr2059     Zr  0.91979928  0.33665653  0.32660250     2.26400
Zr2060     Zr  0.83815713  0.38127851  0.34677520     2.06300
Zr2061     Zr  0.87336443  0.33294517  0.28302270     2.10000
Zr2062     Zr  0.87855672  0.42738574  0.30533198     1.78800
O2063       O  0.87059362  0.27949532  0.26482138    -0.93900
O2064       O  0.86681246  0.48151097  0.32210776    -0.41700
O2065       O  0.91010560  0.37156275  0.30037381    -0.78400
O2066       O  0.89255898  0.39438036  0.33178105    -0.97100
O2067       O  0.86452648  0.32545190  0.34113786    -0.90400
O2068       O  0.88243213  0.29860495  0.30883428    -0.93200
C2069       C  0.80737876  0.45682290  0.27873132     1.00500
C2070       C  0.79099479  0.32353671  0.26720497     1.13500
C2071       C  0.75442906  0.41468329  0.34577470     1.04300
O2072       O  0.85150279  0.43984074  0.35929034    -0.95400
O2073       O  0.87916121  0.36517788  0.37003053    -0.91100
O2074       O  0.92839870  0.34001356  0.35807427    -0.84300
C2075       C  0.90993080  0.35023736  0.37120733     1.10900
O2076       O  0.77084862  0.27416456  0.33748039    -0.97300
Zr2077     Zr  0.82675387  0.28974117  0.32325175     1.88900
O2078       O  0.92851304  0.27549033  0.33642581    -0.74000
O2079       O  0.81544882  0.35230185  0.37305340    -0.53300
O2080       O  0.81638356  0.22638276  0.32971931    -0.97900
O2081       O  0.82589823  0.25549391  0.29606935    -0.55100
O2082       O  0.87472570  0.28682043  0.34392451    -0.74500
C2083       C  0.89959045  0.26406609  0.34278614     0.97800
O2084       O  0.97870421  0.36154284  0.33313879    -0.63300
O2085       O  0.90063599  0.36541932  0.25889167    -0.58100
O2086       O  0.96206102  0.30905758  0.30683451    -0.94800
O2087       O  0.93238073  0.30190650  0.28096657    -0.93200
O2088       O  0.91010785  0.44780960  0.27945273    -0.93600
O2089       O  0.93621911  0.45549407  0.31144319    -0.92400
C2090       C  0.96010371  0.29740793  0.29109027     1.16700
H2091       H  0.83960783  0.39809336  0.27642721     0.32600
H2092       H  0.90810726  0.40860347  0.33922151     0.43500
H2093       H  0.89394203  0.27596258  0.30636141     0.37000
H2094       H  0.77474085  0.34180908  0.33563063     0.33500
H2095       H  0.88246820  0.47942810  0.33259637     0.25300
H2096       H  0.80948031  0.37196830  0.38118869     0.31200
H2097       H  0.83752283  0.21351405  0.32518620     0.37100
H2098       H  0.89741396  0.43640768  0.26949109     0.31600
H2099       H  0.92392881  0.37382687  0.26363200     0.30500
H2100       H  0.87548804  0.28818851  0.25284318     0.32100
H2101       H  0.80505761  0.23924708  0.29688080     0.31100
H2102       H  0.95263116  0.43513590  0.31400221     0.35100
H2103       H  0.98794100  0.36962309  0.32172009     0.27800
H2104       H  0.71452344  0.40266211  0.29780194     0.32100
H2105       H  0.75279553  0.27383651  0.32789020     0.34900
H2106       H  0.90710415  0.34657970  0.25039907     0.27500
H2107       H  0.97382793  0.38410979  0.33948776     0.40400
H2108       H  0.83636174  0.44134350  0.36978143     0.30500
H2109       H  0.87739195  0.50128486  0.31517964     0.38100
H2110       H  0.84688097  0.23919663  0.29662276     0.29900
H2111       H  0.79212223  0.34169000  0.36961052     0.30000
H2112       H  0.71283689  0.36460256  0.30667452     0.30200
C2113       C  0.73411236  0.48697516  0.37834883    -0.02600
C2114       C  0.70749095  0.47243360  0.38954423     0.07100
C2115       C  0.69269848  0.43888573  0.38439517    -0.02700
C2116       C  0.70508006  0.42059712  0.36900575    -0.02700
C2117       C  0.72966286  0.43690818  0.35725639     0.07200
C2118       C  0.74247576  0.47121983  0.36201946    -0.02900
Br2119     Br  0.77374624  0.49620654  0.34617012    -0.01500
Br2120     Br  0.76260502  0.52726897  0.38616007    -0.01600
Br2121     Br  0.68878724  0.37271856  0.36399113    -0.01500
Br2122     Br  0.65588390  0.41784953  0.39845136    -0.01500
C2123       C  0.05777481  0.27288212  0.28223714    -0.02600
C2124       C  0.05623074  0.23502272  0.28139765     0.07100
C2125       C  0.02207829  0.21869299  0.28023549    -0.02700
C2126       C  0.99026832  0.23947732  0.28164939    -0.02700
C2127       C  0.99218217  0.27687768  0.28476287     0.07200
C2128       C  0.02616648  0.29355094  0.28432345    -0.02900
Br2129     Br  0.02949528  0.34487611  0.28731091    -0.01500
Br2130     Br  0.10362739  0.29625807  0.28181614    -0.01600
Br2131     Br  0.94418930  0.21617192  0.28083255    -0.01500
Br2132     Br  0.01921551  0.16733807  0.27743222    -0.01500
C2133       C  0.49674858  0.75571803  0.47112804    -0.02600
C2134       C  0.51179450  0.79057257  0.47063059     0.07100
C2135       C  0.54933820  0.79393476  0.47186976    -0.02700
C2136       C  0.57154959  0.76295688  0.47232781    -0.02700
C2137       C  0.55673152  0.72798717  0.47130670     0.07200
C2138       C  0.51898362  0.72466728  0.47146918    -0.02900
Br2139     Br  0.49761778  0.67761379  0.47047328    -0.01500
Br2140     Br  0.44534094  0.75076113  0.47006754    -0.01600
Br2141     Br  0.62278977  0.76845596  0.47350688    -0.01500
Br2142     Br  0.57043490  0.84119470  0.47093201    -0.01500
C2143       C  0.34326450  0.09146722  0.36949823    -0.02600
C2144       C  0.31560860  0.07624036  0.35894280     0.07100
C2145       C  0.30167985  0.04281318  0.36460487    -0.02700
C2146       C  0.31359605  0.02600993  0.38036186    -0.02700
C2147       C  0.34209722  0.04034794  0.39063027     0.07200
C2148       C  0.35696500  0.07334558  0.38485191    -0.02900
Br2149     Br  0.39633525  0.09345064  0.39795587    -0.01500
Br2150     Br  0.36221447  0.13746130  0.36286325    -0.01600
Br2151     Br  0.28950404  0.98305720  0.38832790    -0.01500
Br2152     Br  0.26498803  0.01990930  0.35063399    -0.01500
C2153       C  0.63811584  0.70509079  0.34210037    -0.02600
C2154       C  0.62374205  0.73926270  0.34526348     0.07100
C2155       C  0.60700603  0.74627775  0.36108366    -0.02700
C2156       C  0.61211688  0.72253941  0.37514040    -0.02700
C2157       C  0.63379281  0.69120892  0.37312439     0.07200
C2158       C  0.64477567  0.68146605  0.35609996    -0.02900
Br2159     Br  0.67284354  0.63886060  0.35157526    -0.01500
Br2160     Br  0.65297901  0.69354653  0.31875507    -0.01600
Br2161     Br  0.59032414  0.73580255  0.39694577    -0.01500
Br2162     Br  0.58161146  0.79114452  0.36415631    -0.01500
C2163       C  0.61620361  0.87625703  0.38860817    -0.02600
C2164       C  0.60738021  0.89440898  0.37293251     0.07100
C2165       C  0.57279988  0.90775020  0.36979155    -0.02700
C2166       C  0.54614450  0.90096521  0.38180295    -0.02700
C2167       C  0.55451260  0.88228109  0.39737588     0.07200
C2168       C  0.58932812  0.86971355  0.40080164    -0.02900
Br2169     Br  0.59895631  0.84144580  0.42153172    -0.01500
Br2170     Br  0.66438492  0.85966558  0.39318443    -0.01600
Br2171     Br  0.49842331  0.91726647  0.37636601    -0.01500
Br2172     Br  0.56213082  0.93542040  0.34883001    -0.01500
C2173       C  0.91862579  0.19948366  0.34607721    -0.02600
C2174       C  0.89414735  0.22758810  0.34964070     0.07100
C2175       C  0.86426364  0.22084634  0.36065018    -0.02700
C2176       C  0.85845258  0.18633982  0.36696939    -0.02700
C2177       C  0.88626112  0.16156830  0.36616400     0.07200
C2178       C  0.91537982  0.16688393  0.35509710    -0.02900
Br2179     Br  0.95258702  0.13082959  0.35417636    -0.01500
Br2180     Br  0.95868821  0.20550837  0.33061448    -0.01600
Br2181     Br  0.81609016  0.17495860  0.38029035    -0.01500
Br2182     Br  0.83418030  0.25813790  0.37046806    -0.01500
C2183       C  0.11661869  0.13891625  0.39615300    -0.02600
C2184       C  0.11468065  0.16804925  0.38429098     0.07100
C2185       C  0.08432808  0.19046147  0.38430282    -0.02700
C2186       C  0.05219725  0.17710802  0.39078146    -0.02700
C2187       C  0.05232876  0.14429679  0.40009138     0.07200
C2188       C  0.08527881  0.12745782  0.40435722    -0.02900
Br2189     Br  0.08781106  0.08837149  0.42103140    -0.01500
Br2190     Br  0.16066349  0.11262110  0.40032949    -0.01600
Br2191     Br  0.00817607  0.20058686  0.38385098    -0.01500
Br2192     Br  0.08629651  0.23764078  0.37378258    -0.01500
C2193       C  0.82136465  0.90503844  0.37675826    -0.02600
C2194       C  0.82796931  0.91698383  0.35929455     0.07100
C2195       C  0.85497286  0.94304989  0.35718147    -0.02700
C2196       C  0.87295183  0.95811290  0.37199573    -0.02700
C2197       C  0.86258538  0.94995061  0.38947542     0.07200
C2198       C  0.83802159  0.92160214  0.39158722    -0.02900
Br2199     Br  0.82516616  0.90737812  0.41488904    -0.01500
Br2200     Br  0.78720127  0.86716840  0.38064920    -0.01600
Br2201     Br  0.91147867  0.99157531  0.36827529    -0.01500
Br2202     Br  0.86386989  0.96205363  0.33417282    -0.01500
C2203       C  0.49875049  0.77649335  0.27883199    -0.02600
C2204       C  0.50012031  0.73852460  0.27939546     0.07100
C2205       C  0.53440618  0.72212366  0.27827144    -0.02700
C2206       C  0.56638464  0.74296432  0.27782707    -0.02700
C2207       C  0.56518609  0.78081427  0.27943005     0.07200
C2208       C  0.53076434  0.79735949  0.27915389    -0.02900
Br2209     Br  0.52716817  0.84908894  0.27930810    -0.01500
Br2210     Br  0.45282679  0.80009715  0.27873497    -0.01600
Br2211     Br  0.61205743  0.71912141  0.27611328    -0.01500
Br2212     Br  0.53774674  0.67045037  0.27786994    -0.01500
C2213       C  0.42716863  0.81775952  0.33905570    -0.02600
C2214       C  0.44284389  0.78389817  0.34203612     0.07100
C2215       C  0.46521566  0.77834381  0.35666727    -0.02700
C2216       C  0.46505285  0.80361027  0.37012947    -0.02700
C2217       C  0.44176340  0.83386953  0.36899307     0.07200
C2218       C  0.42558158  0.84263134  0.35267706    -0.02900
Br2219     Br  0.39812180  0.88611056  0.34880479    -0.01500
Br2220     Br  0.40500136  0.82821555  0.31670647    -0.01600
Br2221     Br  0.49633675  0.79504798  0.39002429    -0.01500
Br2222     Br  0.49265962  0.73436355  0.35940637    -0.01500
C2223       C  0.49463085  0.62557453  0.37308354    -0.02600
C2224       C  0.46023362  0.63905512  0.37586637     0.07100
C2225       C  0.45320209  0.66154005  0.39017137    -0.02700
C2226       C  0.48065949  0.66815169  0.40244576    -0.02700
C2227       C  0.51550908  0.65574692  0.39911775     0.07200
C2228       C  0.52261928  0.63682608  0.38371717    -0.02900
Br2229     Br  0.57035516  0.62599356  0.37665995    -0.01500
Br2230     Br  0.50356026  0.59262106  0.35408069    -0.01600
Br2231     Br  0.47138127  0.69519577  0.42326911    -0.01500
Br2232     Br  0.40738682  0.68503536  0.39219719    -0.01500
C2233       C  0.01875419  0.28044166  0.46197396    -0.02600
C2234       C  0.05463463  0.28146093  0.45616081     0.07100
C2235       C  0.07096664  0.24803242  0.45209712    -0.02700
C2236       C  0.05110856  0.21533121  0.45219059    -0.02700
C2237       C  0.01428065  0.21490253  0.45630004     0.07200
C2238       C  0.99887768  0.24762104  0.46197073    -0.02900
Br2239     Br  0.95013071  0.24717999  0.46983280    -0.01500
Br2240     Br  0.99590040  0.32444912  0.46892268    -0.01600
Br2241     Br  0.07420471  0.17110787  0.44590725    -0.01500
Br2242     Br  0.12113960  0.24700061  0.44631427    -0.01500
C2243       C  0.08173990  0.33312761  0.35122534    -0.02600
C2244       C  0.11022480  0.35755224  0.35404426     0.07100
C2245       C  0.13570135  0.36256235  0.34073195    -0.02700
C2246       C  0.13781860  0.33680521  0.32759806    -0.02700
C2247       C  0.11759847  0.30518390  0.32920531     0.07200
C2248       C  0.08527987  0.30680860  0.33835592    -0.02900
Br2249     Br  0.04684114  0.27361788  0.33338924    -0.01500
Br2250     Br  0.03895935  0.33488786  0.36510317    -0.01600
Br2251     Br  0.16981393  0.34322726  0.30827857    -0.01500
Br2252     Br  0.17056924  0.40089503  0.34098120    -0.01500
C2253       C  0.92165826  0.37079943  0.40219953    -0.02600
C2254       C  0.92594788  0.34507413  0.38879012     0.07100
C2255       C  0.94931963  0.31574521  0.39197992    -0.02700
C2256       C  0.97591216  0.31857696  0.40493820    -0.02700
C2257       C  0.97794797  0.35044852  0.41453180     0.07200
C2258       C  0.94664473  0.37111976  0.41601016    -0.02900
Br2259     Br  0.94003596  0.40071671  0.43630085    -0.01500
Br2260     Br  0.88546419  0.40787032  0.40138609    -0.01600
Br2261     Br  0.00996297  0.28035743  0.40909274    -0.01500
Br2262     Br  0.94497724  0.27208954  0.37907563    -0.01500
C2263       C  0.20630345  0.59411083  0.35922845    -0.02600
C2264       C  0.24082042  0.58002947  0.35560506     0.07100
C2265       C  0.25337957  0.55223380  0.36702079    -0.02700
C2266       C  0.23510078  0.54249282  0.38251042    -0.02700
C2267       C  0.20044076  0.55556151  0.38608482     0.07200
C2268       C  0.18602216  0.58116965  0.37390914    -0.02900
Br2269     Br  0.13816774  0.59861229  0.37752158    -0.01500
Br2270     Br  0.18600243  0.62956031  0.34361362    -0.01600
Br2271     Br  0.25753071  0.50928470  0.39871364    -0.01500
Br2272     Br  0.29346887  0.52289240  0.36009963    -0.01500
C2273       C  0.29705288  0.42822501  0.87806471    -0.02600
C2274       C  0.30618495  0.43563561  0.86021474     0.07100
C2275       C  0.33678426  0.45752452  0.85788915    -0.02700
C2276       C  0.35516629  0.47365279  0.87252250    -0.02700
C2277       C  0.34297356  0.46991275  0.89011405     0.07200
C2278       C  0.31393864  0.44620078  0.89254439    -0.02900
Br2279     Br  0.29435980  0.44163149  0.91562186    -0.01500
Br2280     Br  0.26129257  0.39235650  0.88311884    -0.01600
Br2281     Br  0.39707460  0.50253626  0.86828394    -0.01500
Br2282     Br  0.35232279  0.46760394  0.83451257    -0.01500
C2283       C  0.55451641  0.76374918  0.96738925    -0.02600
C2284       C  0.53799298  0.79812347  0.96584628     0.07100
C2285       C  0.50010641  0.79917000  0.96652192    -0.02700
C2286       C  0.47952159  0.76684490  0.96626550    -0.02700
C2287       C  0.49615249  0.73239157  0.96596369     0.07200
C2288       C  0.53397817  0.73141369  0.96741461    -0.02900
Br2289     Br  0.55816284  0.68564270  0.96799279    -0.01500
Br2290     Br  0.60594036  0.76095802  0.96978074    -0.01600
Br2291     Br  0.42788769  0.76987850  0.96600192    -0.01500
Br2292     Br  0.47598357  0.84486185  0.96738382    -0.01500
C2293       C  0.02058292  0.22311605  0.78059112    -0.02600
C2294       C  0.98599737  0.23901927  0.78124487     0.07100
C2295       C  0.98398940  0.27694123  0.78027552    -0.02700
C2296       C  0.01567612  0.29831632  0.77998568    -0.02700
C2297       C  0.05043788  0.28247302  0.78073667     0.07200
C2298       C  0.05229267  0.24448825  0.78037014    -0.02900
Br2299     Br  0.09850320  0.22145533  0.78102266    -0.01500
Br2300     Br  0.02458215  0.17145394  0.78028581    -0.01600
Br2301     Br  0.01125636  0.34994591  0.77887480    -0.01500
Br2302     Br  0.93766301  0.29992322  0.78090130    -0.01500
C2303       C  0.71113006  0.08282074  0.88762208    -0.02600
C2304       C  0.68609805  0.05492237  0.88485065     0.07100
C2305       C  0.67705916  0.04740826  0.86698241    -0.02700
C2306       C  0.69653525  0.06261160  0.85269818    -0.02700
C2307       C  0.72410121  0.08785623  0.85571562     0.07200
C2308       C  0.72865203  0.09985093  0.87328433    -0.02900
Br2309     Br  0.75850871  0.14108484  0.87772194    -0.01500
Br2310     Br  0.72316426  0.09663477  0.91114670    -0.01600
Br2311     Br  0.68635389  0.04784955  0.82905614    -0.01500
Br2312     Br  0.63652667  0.01709783  0.86193789    -0.01500
C2313       C  0.89820579  0.33917277  0.85686930    -0.02600
C2314       C  0.91649617  0.33196688  0.87283863     0.07100
C2315       C  0.94130476  0.30288644  0.87374047    -0.02700
C2316       C  0.94167700  0.27721600  0.86051029    -0.02700
C2317       C  0.91924590  0.28198330  0.84588132     0.07200
C2318       C  0.90147451  0.31487866  0.84307188    -0.02900
Br2319     Br  0.87855383  0.32415984  0.82072046    -0.01500
Br2320     Br  0.86466126  0.37850207  0.85406443    -0.01600
Br2321     Br  0.96892428  0.23326740  0.86381719    -0.01500
Br2322     Br  0.97441068  0.29588384  0.89302163    -0.01500
C2323       C  0.02756044  0.39433983  0.88235946    -0.02600
C2324       C  0.03841445  0.37815322  0.89821881     0.07100
C2325       C  0.07448460  0.36896065  0.90127503    -0.02700
C2326       C  0.09962090  0.37553288  0.88819358    -0.02700
C2327       C  0.08871080  0.39391078  0.87287849     0.07200
C2328       C  0.05302302  0.40437867  0.87028076    -0.02900
Br2329     Br  0.03915133  0.43313168  0.85013955    -0.01500
Br2330     Br  0.97815156  0.40407632  0.87687458    -0.01600
Br2331     Br  0.14807685  0.35812510  0.89089811    -0.01500
Br2332     Br  0.08876719  0.34665347  0.92307086    -0.01500
C2333       C  0.55761103  0.68543203  0.87556992    -0.02600
C2334       C  0.58526960  0.65900947  0.87633454     0.07100
C2335       C  0.59242336  0.64098605  0.89236407    -0.02700
C2336       C  0.56904845  0.64566880  0.90628695    -0.02700
C2337       C  0.53749813  0.66576137  0.90381387     0.07200
C2338       C  0.53421164  0.68922806  0.88957758    -0.02900
Br2339     Br  0.49614734  0.72454521  0.88878624    -0.01500
Br2340     Br  0.54975060  0.71627418  0.85558029    -0.01600
Br2341     Br  0.57737978  0.62139557  0.92834530    -0.01500
Br2342     Br  0.63081820  0.60645725  0.89529847    -0.01500
C2343       C  0.62755662  0.81929296  0.84565696    -0.02600
C2344       C  0.63245369  0.78255812  0.84963111     0.07100
C2345       C  0.64791993  0.77239379  0.86577418    -0.02700
C2346       C  0.66320720  0.79820162  0.87649464    -0.02700
C2347       C  0.65501831  0.83433336  0.87363976     0.07200
C2348       C  0.63650046  0.84520651  0.85828541    -0.02900
Br2349     Br  0.62199365  0.89451229  0.85484562    -0.01500
Br2350     Br  0.60826757  0.83359543  0.82317220    -0.01600
Br2351     Br  0.69563486  0.78441721  0.89527881    -0.01500
Br2352     Br  0.64947719  0.72357193  0.87365486    -0.01500
C2353       C  0.77871361  0.54221034  0.87226520    -0.02600
C2354       C  0.79507874  0.56989589  0.86220083     0.07100
C2355       C  0.82837845  0.58301429  0.86857598    -0.02700
C2356       C  0.84477934  0.56859253  0.88424804    -0.02700
C2357       C  0.82749397  0.54199519  0.89456398     0.07200
C2358       C  0.79372920  0.52987742  0.88838486    -0.02900
Br2359     Br  0.76824630  0.49455064  0.90206286    -0.01500
Br2360     Br  0.73623750  0.51858706  0.86334027    -0.01600
Br2361     Br  0.89148964  0.58472363  0.89146423    -0.01500
Br2362     Br  0.85163546  0.62049319  0.85563394    -0.01500
C2363       C  0.03884459  0.28914899  0.97225620    -0.02600
C2364       C  0.00101725  0.28750009  0.97097763     0.07100
C2365       C  0.98506791  0.25287714  0.97101905    -0.02700
C2366       C  0.00629324  0.22103641  0.97041683    -0.02700
C2367       C  0.04404993  0.22301042  0.96992052     0.07200
C2368       C  0.06002303  0.25722872  0.97203595    -0.02900
Br2369     Br  0.11141169  0.25996671  0.97440284    -0.01500
Br2370     Br  0.06191798  0.33534042  0.97270764    -0.01600
Br2371     Br  0.98360700  0.17460949  0.96891514    -0.01500
Br2372     Br  0.93365295  0.24912992  0.97118092    -0.01500
C2373       C  0.97583401  0.15867978  0.89927313    -0.02600
C2374       C  0.00912181  0.14680697  0.89278530     0.07100
C2375       C  0.01007781  0.12740251  0.87699198    -0.02700
C2376       C  0.97872617  0.11348722  0.87002779    -0.02700
C2377       C  0.94598158  0.12771935  0.87527964     0.07200
C2378       C  0.94426634  0.15094248  0.88971021    -0.02900
Br2379     Br  0.89934904  0.17334317  0.89548426    -0.01500
Br2380     Br  0.97296239  0.18584403  0.92053357    -0.01600
Br2381     Br  0.98041532  0.07891014  0.85121598    -0.01500
Br2382     Br  0.05353954  0.12201627  0.86372492    -0.01500
C2383       C  0.09632985  0.21796333  0.86902034    -0.02600
C2384       C  0.12151805  0.18904582  0.86832937     0.07100
C2385       C  0.13999073  0.18307227  0.85254616    -0.02700
C2386       C  0.13673120  0.20819804  0.83887653    -0.02700
C2387       C  0.11705789  0.24008944  0.84127753     0.07200
C2388       C  0.09386720  0.24305464  0.85536913    -0.02900
Br2389     Br  0.06221862  0.28428202  0.85722227    -0.01500
Br2390     Br  0.06605691  0.22663278  0.88874537    -0.01600
Br2391     Br  0.16283656  0.20168402  0.81747936    -0.01500
Br2392     Br  0.17372719  0.14407717  0.84987196    -0.01500
C2393       C  0.47099514  0.86142011  0.90384494    -0.02600
C2394       C  0.50531731  0.84786414  0.90015007     0.07100
C2395       C  0.51070671  0.82783461  0.88498591    -0.02700
C2396       C  0.48371819  0.82701927  0.87210142    -0.02700
C2397       C  0.45159213  0.84709228  0.87430503     0.07200
C2398       C  0.44416773  0.86168181  0.89086419    -0.02900
Br2399     Br  0.40003639  0.88685080  0.89549036    -0.01500
Br2400     Br  0.46276528  0.88466689  0.92590769    -0.01600
Br2401     Br  0.49309948  0.79993781  0.85124668    -0.01500
Br2402     Br  0.55697759  0.80649657  0.88059097    -0.01500
C2403       C  0.52566837  0.79501089  0.77317162    -0.02600
C2404       C  0.49111807  0.77971679  0.77444808     0.07100
C2405       C  0.48801309  0.74189800  0.77371334    -0.02700
C2406       C  0.51907427  0.71985656  0.77368375    -0.02700
C2407       C  0.55367433  0.73526081  0.77420301     0.07200
C2408       C  0.55667868  0.77294163  0.77282513    -0.02900
Br2409     Br  0.60364974  0.79433245  0.77224200    -0.01500
Br2410     Br  0.53057429  0.84652884  0.77314891    -0.01600
Br2411     Br  0.51458684  0.66820889  0.77399392    -0.01500
Br2412     Br  0.44123133  0.72021099  0.77438011    -0.01500
C2413       C  0.41659696  0.68034807  0.85992894    -0.02600
C2414       C  0.38820592  0.68480932  0.87163785     0.07100
C2415       C  0.36660945  0.71540058  0.87130367    -0.02700
C2416       C  0.37473770  0.74308527  0.85985986    -0.02700
C2417       C  0.40262231  0.73862577  0.84779966     0.07200
C2418       C  0.42297210  0.70697652  0.84745560    -0.02900
Br2419     Br  0.45976929  0.70082118  0.83027073    -0.01500
Br2420     Br  0.44826030  0.63951549  0.86184838    -0.01600
Br2421     Br  0.34749953  0.78677967  0.86136325    -0.01500
Br2422     Br  0.32753867  0.72007956  0.88757928    -0.01500
C2423       C  0.25376716  0.97111598  0.86364856    -0.02600
C2424       C  0.23903262  0.94090522  0.85477966     0.07100
C2425       C  0.20778008  0.92575808  0.86245548    -0.02700
C2426       C  0.19106506  0.94168069  0.87759638    -0.02700
C2427       C  0.20640950  0.97185018  0.88633953     0.07200
C2428       C  0.23910255  0.98467807  0.87942919    -0.02900
Br2429     Br  0.26594740  0.01976493  0.89273433    -0.01500
Br2430     Br  0.29537997  0.99459759  0.85415272    -0.01600
Br2431     Br  0.14811401  0.92115118  0.88692206    -0.01500
Br2432     Br  0.18889291  0.88213969  0.85268003    -0.01500
C2433       C  0.04239460  0.52137558  0.99137254    -0.02600
C2434       C  0.05092608  0.50734264  0.00817983     0.07100
C2435       C  0.02333842  0.48996282  0.01756508    -0.02700
C2436       C  0.98774303  0.49004242  0.01105980    -0.02700
C2437       C  0.97931085  0.50393400  0.99420466     0.07200
C2438       C  0.00677666  0.52147281  0.98488884    -0.02900
Br2439     Br  0.99620490  0.54885896  0.96395367    -0.01500
Br2440     Br  0.08002317  0.53777408  0.97621716    -0.01600
Br2441     Br  0.94990067  0.47404620  0.02630080    -0.01500
Br2442     Br  0.03329105  0.46369026  0.03894842    -0.01500
C2443       C  0.22423442  0.52421741  0.99689156    -0.02600
C2444       C  0.23463376  0.52654580  0.01462840     0.07100
C2445       C  0.27134807  0.52551752  0.01908859    -0.02700
C2446       C  0.29744848  0.52567072  0.00589224    -0.02700
C2447       C  0.28702530  0.52660580  0.98809605     0.07200
C2448       C  0.25031177  0.52431580  0.98367701    -0.02900
Br2449     Br  0.23583927  0.52505541  0.95940764    -0.01500
Br2450     Br  0.17412001  0.52510384  0.99068802    -0.01600
Br2451     Br  0.34740463  0.52954930  0.01219870    -0.01500
Br2452     Br  0.28556479  0.52746259  0.04338241    -0.01500
C2453       C  0.26947547  0.26887087  0.23446809    -0.02600
C2454       C  0.28954818  0.29713966  0.24221433     0.07100
C2455       C  0.30714112  0.28984698  0.25852103    -0.02700
C2456       C  0.30419800  0.25572473  0.26679773    -0.02700
C2457       C  0.28399563  0.22806981  0.25894842     0.07200
C2458       C  0.26942932  0.23423548  0.24207360    -0.02900
Br2459     Br  0.24818570  0.19447805  0.22950596    -0.01500
Br2460     Br  0.23863652  0.27675080  0.21435229    -0.01600
Br2461     Br  0.32685960  0.24729298  0.28925637    -0.01500
Br2462     Br  0.33227973  0.32749482  0.27084095    -0.01500
C2463       C  0.29968717  0.51995285  0.22726983    -0.02600
C2464       C  0.30202467  0.48291551  0.23106881     0.07100
C2465       C  0.29991200  0.47117881  0.24857429    -0.02700
C2466       C  0.29763460  0.49640761  0.26222468    -0.02700
C2467       C  0.29859730  0.53361877  0.25855576     0.07200
C2468       C  0.29837864  0.54521782  0.24096373    -0.02900
Br2469     Br  0.30054691  0.59585637  0.23572554    -0.01500
Br2470     Br  0.30049493  0.53594801  0.20327423    -0.01600
Br2471     Br  0.29616711  0.48007816  0.28614982    -0.01500
Br2472     Br  0.30492449  0.42073940  0.25403848    -0.01500
C2473       C  0.23792237  0.47424178  0.13560117    -0.02600
C2474       C  0.22662230  0.43982740  0.14129434     0.07100
C2475       C  0.19785817  0.42412733  0.13156580    -0.02700
C2476       C  0.17968000  0.44328117  0.11756085    -0.02700
C2477       C  0.19205576  0.47725111  0.11155123     0.07200
C2478       C  0.22187061  0.49195814  0.12088932    -0.02900
Br2479     Br  0.24294172  0.53640595  0.11295112    -0.01500
Br2480     Br  0.27807591  0.49652505  0.14749808    -0.01600
Br2481     Br  0.13701141  0.42360130  0.10706079    -0.01500
Br2482     Br  0.18487021  0.37527366  0.13671855    -0.01500
C2483       C  0.51843486  0.02502750  0.97854579    -0.02600
C2484       C  0.54989370  0.01215561  0.98711924     0.07100
C2485       C  0.54611316  0.99715273  0.00411916    -0.02700
C2486       C  0.51198121  0.99264392  0.01168272    -0.02700
C2487       C  0.48108095  0.00805518  0.00386259     0.07200
C2488       C  0.48453804  0.02226800  0.98669293    -0.02900
Br2489     Br  0.44185068  0.03356284  0.97321906    -0.01500
Br2490     Br  0.52059432  0.04659662  0.95557617    -0.01600
Br2491     Br  0.50771461  0.96057628  0.03133101    -0.01500
Br2492     Br  0.58798391  0.98478544  0.01806666    -0.01500
C2493       C  0.25166140  0.02133073  0.01606839    -0.02600
C2494       C  0.28920636  0.01898069  0.01464490     0.07100
C2495       C  0.30403993  0.01196722  0.99802503    -0.02700
C2496       C  0.28201776  0.01264228  0.98284811    -0.02700
C2497       C  0.24485689  0.01797557  0.98422142     0.07200
C2498       C  0.22969636  0.01932395  0.00096839    -0.02900
Br2499     Br  0.17859136  0.01990394  0.00308138    -0.01500
Br2500     Br  0.23019630  0.02824789  0.03859247    -0.01600
Br2501     Br  0.30256327  0.00719032  0.96005972    -0.01500
Br2502     Br  0.35489724  0.00451197  0.99556378    -0.01500
C2503       C  0.39644410  0.17835639  0.16104663    -0.02600
C2504       C  0.41881037  0.20869945  0.16072894     0.07100
C2505       C  0.45039848  0.20720412  0.15106219    -0.02700
C2506       C  0.45235422  0.18295350  0.13721184    -0.02700
C2507       C  0.42399266  0.15824455  0.13430794     0.07200
C2508       C  0.39756233  0.15400844  0.14721026    -0.02900
Br2509     Br  0.35923727  0.11955280  0.14499017    -0.01500
Br2510     Br  0.36338898  0.17147257  0.17994214    -0.01600
Br2511     Br  0.49251993  0.18678270  0.12181518    -0.01500
Br2512     Br  0.49002388  0.23895837  0.15633425    -0.01500
C2513       C  0.25794248  0.78586607  0.25786669    -0.02600
C2514       C  0.26750868  0.79306034  0.24038330     0.07100
C2515       C  0.28588876  0.76612079  0.23114122    -0.02700
C2516       C  0.29160519  0.73167524  0.23867859    -0.02700
C2517       C  0.28010859  0.72363962  0.25591790     0.07200
C2518       C  0.26251935  0.75125174  0.26529807    -0.02900
Br2519     Br  0.24253812  0.74265958  0.28807181    -0.01500
Br2520     Br  0.23931601  0.82454717  0.27193338    -0.01600
Br2521     Br  0.31249810  0.69468673  0.22434379    -0.01500
Br2522     Br  0.30307734  0.77581396  0.20791426    -0.01500
C2523       C  0.25385059  0.97390557  0.25300626    -0.02600
C2524       C  0.25037021  0.98910551  0.23607955     0.07100
C2525       C  0.25256364  0.02671567  0.23411451    -0.02700
C2526       C  0.25624499  0.04896654  0.24890771    -0.02700
C2527       C  0.25561414  0.03398295  0.26592087     0.07200
C2528       C  0.25557697  0.99628189  0.26786483    -0.02900
Br2529     Br  0.25542638  0.97551521  0.29101437    -0.01500
Br2530     Br  0.25202375  0.92246086  0.25609958    -0.01600
Br2531     Br  0.25797392  0.10037534  0.24572841    -0.01500
Br2532     Br  0.24751768  0.04792853  0.21116001    -0.01500
C2533       C  0.09104982  0.69182417  0.13872948    -0.02600
C2534       C  0.11704549  0.69290533  0.12561554     0.07100
C2535       C  0.14096325  0.72151995  0.12408200    -0.02700
C2536       C  0.13799993  0.75038286  0.13527469    -0.02700
C2537       C  0.11349501  0.74870379  0.14905494     0.07200
C2538       C  0.09027173  0.71944781  0.15103540    -0.02900
Br2539     Br  0.05873294  0.71717029  0.17074896    -0.01500
Br2540     Br  0.05680514  0.65321316  0.13963735    -0.01600
Br2541     Br  0.16868154  0.79131611  0.13179607    -0.01500
Br2542     Br  0.17834037  0.72056744  0.10676225    -0.01500
C2543       C  0.28302798  0.96338722  0.12706629    -0.02600
C2544       C  0.29575648  0.93518212  0.13830224     0.07100
C2545       C  0.32804197  0.91817924  0.13315756    -0.02700
C2546       C  0.34728075  0.93002856  0.11792235    -0.02700
C2547       C  0.33362128  0.95726653  0.10642030     0.07200
C2548       C  0.30054959  0.97284541  0.11122194    -0.02900
Br2549     Br  0.27977055  0.00934399  0.09617956    -0.01500
Br2550     Br  0.24234321  0.99200235  0.13404856    -0.01600
Br2551     Br  0.39323993  0.90946074  0.11289347    -0.01500
Br2552     Br  0.34585707  0.87846260  0.14693658    -0.01500
C2553       C  0.76305860  0.26117951  0.26420359    -0.02600
C2554       C  0.78074241  0.29093944  0.25659912     0.07100
C2555       C  0.79639372  0.28614820  0.23996145    -0.02700
C2556       C  0.79823249  0.25194491  0.23209247    -0.02700
C2557       C  0.78109644  0.22201051  0.23978164     0.07200
C2558       C  0.76424125  0.22694541  0.25616837    -0.02900
Br2559     Br  0.74497526  0.18611897  0.26867979    -0.01500
Br2560     Br  0.73563313  0.26662441  0.28528825    -0.01600
Br2561     Br  0.82435148  0.24750073  0.21055425    -0.01500
Br2562     Br  0.81255032  0.32728145  0.22672049    -0.01500
C2563       C  0.78479406  0.97331410  0.24509573    -0.02600
C2564       C  0.78396747  0.98284763  0.26286143     0.07100
C2565       C  0.78848211  0.01918164  0.26756324    -0.02700
C2566       C  0.78965180  0.04612131  0.25448563    -0.02700
C2567       C  0.78562868  0.03681315  0.23672376     0.07200
C2568       C  0.78541067  0.00020937  0.23207507    -0.02900
Br2569     Br  0.78070026  0.98723789  0.20780829    -0.01500
Br2570     Br  0.77944647  0.92352060  0.23862829    -0.01600
Br2571     Br  0.79265540  0.09605915  0.26083907    -0.01500
Br2572     Br  0.78925576  0.03205521  0.29191972    -0.01500
C2573       C  0.53212949  0.21845570  0.21180956    -0.02600
C2574       C  0.56590202  0.23611512  0.21069893     0.07100
C2575       C  0.56523329  0.27414341  0.20960547    -0.02700
C2576       C  0.53221456  0.29347359  0.20804751    -0.02700
C2577       C  0.49862516  0.27568444  0.20836794     0.07200
C2578       C  0.49910621  0.23794487  0.21079409    -0.02900
Br2579     Br  0.45420273  0.21241583  0.21105405    -0.01500
Br2580     Br  0.53083320  0.16686400  0.21442647    -0.01600
Br2581     Br  0.53302865  0.34478145  0.20445407    -0.01500
Br2582     Br  0.60973480  0.30001687  0.20903455    -0.01500
C2583       C  0.54423208  0.10372691  0.11637527    -0.02600
C2584       C  0.55005770  0.12327229  0.10085049     0.07100
C2585       C  0.58421380  0.13643809  0.09684029    -0.02700
C2586       C  0.61247276  0.13081080  0.10867510    -0.02700
C2587       C  0.60641430  0.11084177  0.12394241     0.07200
C2588       C  0.57293534  0.09598913  0.12746884    -0.02900
Br2589     Br  0.56665671  0.06596002  0.14790803    -0.01500
Br2590     Br  0.49719155  0.08817104  0.12308046    -0.01600
Br2591     Br  0.65881971  0.15200578  0.10466763    -0.01500
Br2592     Br  0.59157700  0.16410728  0.07591294    -0.01500
C2593       C  0.98886563  0.00049959  0.98442807    -0.02600
C2594       C  0.98484631  0.01262594  0.00184840     0.07100
C2595       C  0.01588677  0.02429502  0.01098040    -0.02700
C2596       C  0.05009684  0.02065275  0.00349250    -0.02700
C2597       C  0.05423582  0.00914466  0.98594155     0.07200
C2598       C  0.02311366  0.99805513  0.97668443    -0.02900
Br2599     Br  0.02658234  0.97819166  0.95354241    -0.01500
Br2600     Br  0.94676449  0.99011428  0.97039436    -0.01600
Br2601     Br  0.09159623  0.02886412  0.01829235    -0.01500
Br2602     Br  0.01288100  0.04645992  0.03370630    -0.01500
C2603       C  0.75608624  0.02271277  0.01585210    -0.02600
C2604       C  0.79189561  0.02000450  0.01042899     0.07100
C2605       C  0.79976361  0.02447170  0.99260789    -0.02700
C2606       C  0.77176559  0.02525427  0.98008331    -0.02700
C2607       C  0.73605477  0.02118993  0.98539067     0.07200
C2608       C  0.72808099  0.02305073  0.00330292    -0.02900
Br2609     Br  0.67893379  0.02156799  0.01051837    -0.20700
Br2610     Br  0.74574001  0.02271454  0.04043979    -0.01600
Br2611     Br  0.78221358  0.02659172  0.95549767    -0.01500
Br2612     Br  0.84892424  0.02449153  0.98526644    -0.01500
C2613       C  0.09296276  0.86772999  0.10438543    -0.02600
C2614       C  0.08173606  0.85656893  0.12123752     0.07100
C2615       C  0.04922913  0.83683136  0.12265259    -0.02700
C2616       C  0.02557487  0.83509819  0.10836875    -0.02700
C2617       C  0.03454781  0.85205576  0.09272469     0.07200
C2618       C  0.06958534  0.86390282  0.09005651    -0.02900
Br2619     Br  0.08302782  0.87911392  0.06690780    -0.01500
Br2620     Br  0.13731281  0.89279474  0.10040312    -0.01600
Br2621     Br  0.97858383  0.81430775  0.11088646    -0.01500
Br2622     Br  0.03461397  0.81301599  0.14381453    -0.01500
C2623       C  0.85787965  0.07146112  0.13770058    -0.02600
C2624       C  0.82851413  0.09523921  0.13577475     0.07100
C2625       C  0.81940810  0.10588811  0.11827502    -0.02700
C2626       C  0.83479547  0.08893166  0.10336720    -0.02700
C2627       C  0.86134186  0.06204823  0.10535236     0.07200
C2628       C  0.87433426  0.05564933  0.12275427    -0.02900
Br2629     Br  0.91512618  0.02438255  0.12614755    -0.01500
Br2630     Br  0.87453778  0.05911768  0.16086967    -0.01600
Br2631     Br  0.81759496  0.10080660  0.08023093    -0.01500
Br2632     Br  0.78567236  0.14470353  0.11467366    -0.01500
C2633       C  0.04702689  0.76036216  0.02483380    -0.02600
C2634       C  0.02876628  0.72700806  0.02602953     0.07100
C2635       C  0.99093721  0.72781928  0.02550202    -0.02700
C2636       C  0.97200356  0.76114737  0.02547732    -0.02700
C2637       C  0.99039023  0.79463550  0.02582033     0.07200
C2638       C  0.02811321  0.79366370  0.02437767    -0.02900
Br2639     Br  0.05440380  0.83805103  0.02295885    -0.01500
Br2640     Br  0.09872675  0.76044137  0.02512657    -0.01600
Br2641     Br  0.92035008  0.76080803  0.02518580    -0.01500
Br2642     Br  0.96500696  0.68313222  0.02651572    -0.01500
C2643       C  0.50507971  0.49953884  0.98479841    -0.02600
C2644       C  0.47626407  0.51742215  0.99304412     0.07100
C2645       C  0.48259881  0.53238761  0.00989182    -0.02700
C2646       C  0.51662649  0.52951447  0.01817183    -0.02700
C2647       C  0.54458887  0.51046367  0.01017112     0.07200
C2648       C  0.53910627  0.49769778  0.99300486    -0.02900
Br2649     Br  0.57920802  0.47725940  0.98071585    -0.01500
Br2650     Br  0.49918722  0.47561025  0.96260531    -0.01600
Br2651     Br  0.52461253  0.55163684  0.04059817    -0.01500
Br2652     Br  0.44397548  0.55410837  0.02277183    -0.01500
C2653       C  0.80097262  0.48612736  0.00623922    -0.02600
C2654       C  0.78753696  0.48195545  0.98900377     0.07100
C2655       C  0.75025535  0.48298748  0.98594801    -0.02700
C2656       C  0.72661919  0.48692382  0.00002691    -0.02700
C2657       C  0.73997909  0.48688551  0.01736869     0.07200
C2658       C  0.77718843  0.48835310  0.02036717    -0.02900
Br2659     Br  0.79515310  0.49206123  0.04402998    -0.01500
Br2660     Br  0.85178242  0.48396882  0.01088557    -0.01600
Br2661     Br  0.67576539  0.49000645  0.99556612    -0.01500
Br2662     Br  0.73150204  0.47561195  0.96263589    -0.01500
C2663       C  0.53516592  0.21561960  0.03310977    -0.02600
C2664       C  0.49751596  0.21841400  0.03435935     0.07100
C2665       C  0.48241827  0.25339999  0.03495949    -0.02700
C2666       C  0.50436308  0.28461046  0.03432744    -0.02700
C2667       C  0.54215316  0.28177141  0.03463910     0.07200
C2668       C  0.55728452  0.24677020  0.03394245    -0.02900
Br2669     Br  0.60858868  0.24125291  0.03525760    -0.01500
Br2670     Br  0.55647664  0.16850410  0.03166174    -0.01600
Br2671     Br  0.48253429  0.33158150  0.03484093    -0.01500
Br2672     Br  0.43156402  0.25870235  0.03820829    -0.01500
C2673       C  0.41697959  0.37262471  0.09390090    -0.02600
C2674       C  0.42062823  0.34561003  0.10688875     0.07100
C2675       C  0.44112820  0.31462577  0.10311332    -0.02700
C2676       C  0.46671971  0.31650494  0.08989202    -0.02700
C2677       C  0.47032679  0.34906952  0.08081726     0.07200
C2678       C  0.44045891  0.37213416  0.07987488    -0.02900
Br2679     Br  0.43499689  0.40571479  0.06073653    -0.01500
Br2680     Br  0.38451805  0.41287819  0.09576537    -0.01600
Br2681     Br  0.49619699  0.27573706  0.08419183    -0.01500
Br2682     Br  0.43402328  0.27047505  0.11577252    -0.01500
C2683       C  0.63379512  0.34544613  0.14990422    -0.02600
C2684       C  0.60728058  0.34315401  0.13665657     0.07100
C2685       C  0.58503278  0.31259949  0.13605669    -0.02700
C2686       C  0.59756971  0.28034901  0.14325818    -0.02700
C2687       C  0.62843507  0.28091245  0.15394761     0.07200
C2688       C  0.64372402  0.31406086  0.15894028    -0.02900
Br2689     Br  0.67968390  0.31613085  0.17729216    -0.01500
Br2690     Br  0.65853113  0.38981609  0.15499293    -0.01600
Br2691     Br  0.57634649  0.23570128  0.13573238    -0.01500
Br2692     Br  0.53955229  0.31434131  0.12380281    -0.01500
C2693       C  0.79021371  0.72264800  0.26114536    -0.02600
C2694       C  0.77141549  0.71499445  0.24531152     0.07100
C2695       C  0.75207263  0.74329807  0.23728927    -0.02700
C2696       C  0.75769246  0.77916972  0.24252669    -0.02700
C2697       C  0.77675479  0.78729995  0.25816539     0.07200
C2698       C  0.79362037  0.75841634  0.26728177    -0.02900
Br2699     Br  0.82415261  0.76692208  0.28742272    -0.01500
Br2700     Br  0.81033048  0.68388830  0.27516873    -0.01600
Br2701     Br  0.74371799  0.81704003  0.22648526    -0.01500
Br2702     Br  0.71366563  0.73330428  0.22099777    -0.01500
C2703       C  0.78696423  0.53955781  0.25125810    -0.02600
C2704       C  0.79412629  0.52647283  0.23432484     0.07100
C2705       C  0.79940880  0.48951110  0.23187116    -0.02700
C2706       C  0.80218352  0.46638674  0.24641197    -0.02700
C2707       C  0.79787732  0.47981599  0.26350391     0.07200
C2708       C  0.78873173  0.51613645  0.26580218    -0.02900
Br2709     Br  0.78052998  0.53386631  0.28902867    -0.01500
Br2710     Br  0.77760859  0.58993323  0.25489834    -0.01600
Br2711     Br  0.81559802  0.41719607  0.24274391    -0.01500
Br2712     Br  0.80326219  0.47099941  0.20843745    -0.01500
C2713       C  0.97395012  0.78325551  0.22158091    -0.02600
C2714       C  0.97789944  0.74553345  0.22047874     0.07100
C2715       C  0.01291790  0.73100034  0.22174525    -0.02700
C2716       C  0.04345311  0.75370490  0.22222414    -0.02700
C2717       C  0.03960161  0.79145653  0.22152767     0.07200
C2718       C  0.00451313  0.80600691  0.22196187    -0.02900
Br2719     Br  0.99842188  0.85747332  0.22195225    -0.01500
Br2720     Br  0.92650305  0.80384676  0.22114529    -0.01600
Br2721     Br  0.09081630  0.73300045  0.22164693    -0.01500
Br2722     Br  0.01902081  0.67958285  0.22211744    -0.01500
C2723       C  0.95586495  0.69786199  0.11667586    -0.02600
C2724       C  0.92601109  0.67423524  0.11698326     0.07100
C2725       C  0.91719337  0.65462164  0.10163833    -0.02700
C2726       C  0.94197120  0.65310561  0.08806183    -0.02700
C2727       C  0.97545681  0.66961595  0.09011574     0.07200
C2728       C  0.98058945  0.69555926  0.10314452    -0.02900
Br2729     Br  0.02324974  0.72505462  0.10371200    -0.01500
Br2730     Br  0.96519319  0.73215406  0.13500835    -0.01600
Br2731     Br  0.93186080  0.62639310  0.06701224    -0.01500
Br2732     Br  0.87409697  0.62631464  0.09920391    -0.01500
C2733       C  0.90601885  0.84615083  0.13444399    -0.02600
C2734       C  0.88456166  0.83967989  0.11950677     0.07100
C2735       C  0.86533625  0.80780700  0.11749157    -0.02700
C2736       C  0.86794662  0.78164831  0.13034077    -0.02700
C2737       C  0.88906582  0.78788581  0.14543159     0.07200
C2738       C  0.90826212  0.81989368  0.14759088    -0.02900
Br2739     Br  0.93700802  0.82740029  0.16834731    -0.01500
Br2740     Br  0.93305296  0.89006386  0.13650826    -0.01600
Br2741     Br  0.84146599  0.73759444  0.12720759    -0.01500
Br2742     Br  0.83515850  0.80019795  0.09707788    -0.01500
C2743       C  0.69498362  0.59206472  0.13388388    -0.02600
C2744       C  0.72628187  0.57656016  0.14159898     0.07100
C2745       C  0.74114416  0.54657210  0.13283736    -0.02700
C2746       C  0.72688594  0.53404362  0.11669558    -0.02700
C2747       C  0.69421460  0.54742031  0.10965468     0.07200
C2748       C  0.67809233  0.57641731  0.11870856    -0.02900
Br2749     Br  0.63270043  0.59439584  0.11031145    -0.01500
Br2750     Br  0.67592733  0.63528576  0.14382763    -0.01600
Br2751     Br  0.75245416  0.49765669  0.10391960    -0.01500
Br2752     Br  0.78157387  0.52167778  0.14329504    -0.01500
C2753       C  0.78791692  0.26320161  0.73157173    -0.02600
C2754       C  0.77082877  0.29143142  0.74064612     0.07100
C2755       C  0.75730431  0.28360652  0.75750950    -0.02700
C2756       C  0.75620712  0.24795884  0.76400432    -0.02700
C2757       C  0.77279087  0.21958520  0.75481070     0.07200
C2758       C  0.78773341  0.22760626  0.73827640    -0.02900
Br2759     Br  0.80564961  0.18918480  0.72384105    -0.01500
Br2760     Br  0.81430496  0.27267375  0.71054656    -0.01600
Br2761     Br  0.73048472  0.23915596  0.78537134    -0.01500
Br2762     Br  0.74322639  0.32223300  0.77286457    -0.01500
C2763       C  0.75519659  0.49330793  0.76680562    -0.02600
C2764       C  0.75542618  0.53090310  0.76476116     0.07100
C2765       C  0.76352733  0.54586141  0.74822784    -0.02700
C2766       C  0.76608258  0.52343817  0.73347807    -0.02700
C2767       C  0.76240548  0.48603134  0.73533571     0.07200
C2768       C  0.76007871  0.47093185  0.75224476    -0.02900
Br2769     Br  0.76004566  0.41950650  0.75536883    -0.01500
Br2770     Br  0.74557675  0.47258617  0.78941019    -0.01600
Br2771     Br  0.77215661  0.54360915  0.71043791    -0.01500
Br2772     Br  0.76746056  0.59710066  0.74525683    -0.01500
C2773       C  0.03784111  0.51653327  0.48272136    -0.02600
C2774       C  0.06803144  0.49816619  0.48993182     0.07100
C2775       C  0.06446760  0.48227139  0.50678424    -0.02700
C2776       C  0.03140972  0.48321967  0.51571558    -0.02700
C2777       C  0.00193396  0.50239659  0.50871169     0.07200
C2778       C  0.00516297  0.51769300  0.49181883    -0.02900
Br2779     Br  0.96354227  0.53970906  0.48078548    -0.01500
Br2780     Br  0.03981337  0.54103837  0.46042828    -0.01600
Br2781     Br  0.02632689  0.45724097  0.53735887    -0.01500
Br2782     Br  0.10558971  0.46110396  0.51850777    -0.01500
C2783       C  0.81934795  0.51307801  0.49966749    -0.02600
C2784       C  0.80548317  0.51399360  0.51678121     0.07100
C2785       C  0.76801195  0.51318155  0.51892124    -0.02700
C2786       C  0.74474418  0.51500237  0.50421974    -0.02700
C2787       C  0.75885064  0.51818997  0.48723406     0.07200
C2788       C  0.79617825  0.51623097  0.48501401    -0.02900
Br2789     Br  0.81560555  0.52151325  0.46187908    -0.01500
Br2790     Br  0.87034248  0.51126407  0.49611652    -0.01600
Br2791     Br  0.69369271  0.51817384  0.50762351    -0.01500
Br2792     Br  0.74875460  0.51126098  0.54215263    -0.01500
C2793       C  0.86772980  0.43211100  0.62040498    -0.02600
C2794       C  0.85422883  0.45996179  0.60922488     0.07100
C2795       C  0.82132323  0.47564660  0.61414271    -0.02700
C2796       C  0.80323363  0.46498455  0.62956025    -0.02700
C2797       C  0.81505006  0.43534924  0.63998550     0.07200
C2798       C  0.84764432  0.41881563  0.63503265    -0.02900
Br2799     Br  0.86471499  0.37799845  0.64826107    -0.01500
Br2800     Br  0.91446524  0.41277960  0.61586388    -0.01600
Br2801     Br  0.76286903  0.49344186  0.63712705    -0.01500
Br2802     Br  0.80127445  0.51368587  0.59996065    -0.01500
C2803       C  0.75208069  0.75954046  0.73322223    -0.02600
C2804       C  0.77145778  0.78784561  0.74126389     0.07100
C2805       C  0.78830580  0.78063678  0.75771367    -0.02700
C2806       C  0.78594677  0.74631282  0.76581919    -0.02700
C2807       C  0.76659287  0.71802731  0.75772278     0.07200
C2808       C  0.75164284  0.72473310  0.74077130    -0.02900
Br2809     Br  0.73222955  0.68589564  0.72671770    -0.01500
Br2810     Br  0.72530034  0.76720094  0.71169510    -0.01600
Br2811     Br  0.81088365  0.73877797  0.78783819    -0.01500
Br2812     Br  0.81345197  0.81838474  0.77006659    -0.01500
C2813       C  0.78221563  0.96471425  0.75073839    -0.02600
C2814       C  0.77890134  0.97636470  0.73322710     0.07100
C2815       C  0.77456470  0.01342880  0.72966480    -0.02700
C2816       C  0.77618045  0.03867257  0.74336391    -0.02700
C2817       C  0.78350518  0.02711819  0.76060327     0.07200
C2818       C  0.78510327  0.99001755  0.76434743    -0.02900
Br2819     Br  0.79425879  0.97419206  0.78802668    -0.01500
Br2820     Br  0.78727285  0.91418899  0.75586207    -0.01600
Br2821     Br  0.77263129  0.08948074  0.73833186    -0.01500
Br2822     Br  0.76972198  0.02990454  0.70586306    -0.01500
C2823       C  0.94206371  0.72209456  0.64250878    -0.02600
C2824       C  0.91022470  0.71877213  0.65223441     0.07100
C2825       C  0.89779396  0.68418606  0.65690655    -0.02700
C2826       C  0.91202136  0.65394824  0.64860541    -0.02700
C2827       C  0.93922161  0.65889466  0.63622061     0.07200
C2828       C  0.95843311  0.69117728  0.63618419    -0.02900
Br2829     Br  0.00474608  0.69319900  0.62533213    -0.01500
Br2830     Br  0.96041564  0.76798507  0.63477994    -0.01600
Br2831     Br  0.89309404  0.60682890  0.65376990    -0.01500
Br2832     Br  0.86121209  0.67778397  0.67422904    -0.01500
C2833       C  0.54813260  0.02306521  0.49049691    -0.02600
C2834       C  0.55719583  0.00732001  0.50689422     0.07100
C2835       C  0.52986210  0.98910538  0.51610966    -0.02700
C2836       C  0.49426241  0.98878527  0.50953543    -0.02700
C2837       C  0.48551057  0.00358825  0.49287586     0.07200
C2838       C  0.51237087  0.02326520  0.48417165    -0.02900
Br2839     Br  0.50037845  0.05427452  0.46469649    -0.01500
Br2840     Br  0.58522548  0.04155682  0.47551181    -0.01600
Br2841     Br  0.45677386  0.97071598  0.52442606    -0.01500
Br2842     Br  0.53999648  0.96297826  0.53754398    -0.01500
C2843       C  0.78646731  0.03030194  0.51975860    -0.02600
C2844       C  0.75027304  0.02522680  0.51484798     0.07100
C2845       C  0.74193632  0.01451184  0.49761073    -0.02700
C2846       C  0.76933219  0.01152742  0.48508720    -0.02700
C2847       C  0.80522651  0.01914910  0.48970536     0.07200
C2848       C  0.81376440  0.02688034  0.50730199    -0.02900
Br2849     Br  0.86282134  0.03637643  0.51389212    -0.01500
Br2850     Br  0.79825960  0.04545525  0.54323065    -0.01600
Br2851     Br  0.75730098  0.00141944  0.46106611    -0.01500
Br2852     Br  0.69244084  0.00916930  0.49054844    -0.01500
C2853       C  0.64796017  0.25518585  0.63006034    -0.02600
C2854       C  0.62876877  0.24838267  0.64541551     0.07100
C2855       C  0.61014451  0.21615863  0.64777561    -0.02700
C2856       C  0.61190245  0.18988304  0.63485075    -0.02700
C2857       C  0.63397818  0.19572695  0.62036332     0.07200
C2858       C  0.65164813  0.22834011  0.61781069    -0.02900
Br2859     Br  0.68187961  0.23584131  0.59772590    -0.01500
Br2860     Br  0.67098277  0.30021403  0.62567344    -0.01600
Br2861     Br  0.58293178  0.14721252  0.63648144    -0.01500
Br2862     Br  0.58253988  0.20856108  0.66853306    -0.01500
C2863       C  0.67919075  0.93703512  0.61144092    -0.02600
C2864       C  0.69053133  0.97338773  0.60967542     0.07100
C2865       C  0.71308449  0.98649086  0.62354807    -0.02700
C2866       C  0.71976738  0.96641239  0.63914254    -0.02700
C2867       C  0.71111957  0.92967006  0.64028478     0.07200
C2868       C  0.69072450  0.91523265  0.62609567    -0.02900
Br2869     Br  0.67749352  0.86523829  0.62722296    -0.01500
Br2870     Br  0.64849936  0.91636140  0.59381380    -0.01600
Br2871     Br  0.74167832  0.98968387  0.65904319    -0.01500
Br2872     Br  0.74143224  0.02934689  0.62040067    -0.01500
C2873       C  0.28181305  0.75698332  0.72632917    -0.02600
C2874       C  0.26325256  0.72873786  0.73484831     0.07100
C2875       C  0.24770869  0.73659652  0.75132896    -0.02700
C2876       C  0.24997190  0.77145277  0.75875146    -0.02700
C2877       C  0.27011755  0.79874168  0.75063682     0.07200
C2878       C  0.28333227  0.79179760  0.73369720    -0.02900
Br2879     Br  0.30215902  0.83117818  0.72001766    -0.01500
Br2880     Br  0.30768690  0.74891637  0.70500812    -0.01600
Br2881     Br  0.22417730  0.78180493  0.77984043    -0.01500
Br2882     Br  0.22653143  0.69880806  0.76514859    -0.01500
C2883       C  0.26907515  0.50555728  0.72708348    -0.02600
C2884       C  0.25965733  0.54194123  0.72935191     0.07100
C2885       C  0.25235228  0.55434545  0.74631094    -0.02700
C2886       C  0.25076550  0.53008867  0.76048501    -0.02700
C2887       C  0.25558633  0.49295392  0.75781373     0.07200
C2888       C  0.26635389  0.48095745  0.74120100    -0.02900
Br2889     Br  0.27265663  0.43035144  0.73724562    -0.01500
Br2890     Br  0.28357867  0.48940896  0.70438568    -0.01600
Br2891     Br  0.23886561  0.54724347  0.78342527    -0.01500
Br2892     Br  0.24007258  0.60413677  0.74970182    -0.01500
C2893       C  0.98136691  0.73712919  0.70346743    -0.02600
C2894       C  0.98152816  0.77498538  0.70504528     0.07100
C2895       C  0.01533869  0.79196512  0.70688029    -0.02700
C2896       C  0.04802516  0.77192208  0.70631172    -0.02700
C2897       C  0.04796707  0.73438751  0.70315478     0.07200
C2898       C  0.01396057  0.71714929  0.70242136    -0.02900
Br2899     Br  0.01168353  0.66567098  0.69983545    -0.01500
Br2900     Br  0.93602248  0.71283070  0.70138833    -0.01600
Br2901     Br  0.09303507  0.79672730  0.70844697    -0.01500
Br2902     Br  0.01678163  0.84343701  0.70940927    -0.01500
C2903       C  0.09734646  0.69353752  0.60116720    -0.02600
C2904       C  0.11819246  0.66191804  0.60324813     0.07100
C2905       C  0.12478519  0.64049188  0.58845839    -0.02700
C2906       C  0.10341117  0.64614864  0.57358947    -0.02700
C2907       C  0.07212800  0.66679245  0.57543467     0.07200
C2908       C  0.07381875  0.69603118  0.58684181    -0.02900
Br2909     Br  0.04132549  0.73596707  0.58400068    -0.01500
Br2910     Br  0.10134575  0.73285317  0.61737692    -0.01600
Br2911     Br  0.11140843  0.61977730  0.55245262    -0.01500
Br2912     Br  0.15886095  0.60144772  0.58859811    -0.01500
C2913       C  0.49970859  0.49612760  0.48526444    -0.02600
C2914       C  0.48978911  0.51217279  0.50133136     0.07100
C2915       C  0.51686601  0.53016599  0.51105196    -0.02700
C2916       C  0.55307257  0.52851092  0.50589479    -0.02700
C2917       C  0.56282921  0.51375981  0.48953672     0.07200
C2918       C  0.53582328  0.49591922  0.47972124    -0.02900
Br2919     Br  0.54774473  0.46805201  0.45936243    -0.01500
Br2920     Br  0.46351289  0.47606300  0.46988729    -0.01600
Br2921     Br  0.58961998  0.54255721  0.52271534    -0.01500
Br2922     Br  0.50560186  0.55860390  0.53136306    -0.01500
C2923       C  0.28732609  0.49025029  0.47228141    -0.02600
C2924       C  0.25026836  0.48932691  0.47574913     0.07100
C2925       C  0.23880739  0.49572980  0.49299579    -0.02700
C2926       C  0.26406564  0.49817801  0.50684961    -0.02700
C2927       C  0.30104762  0.49590470  0.50355014     0.07200
C2928       C  0.31257100  0.49375142  0.48611096    -0.02900
Br2929     Br  0.36314545  0.49202592  0.48141727    -0.01500
Br2930     Br  0.30344072  0.48629604  0.44855159    -0.01600
Br2931     Br  0.24815993  0.50105816  0.53069069    -0.01500
Br2932     Br  0.18847231  0.49855591  0.49799758    -0.01500
C2933       C  0.49658268  0.22637685  0.52574056    -0.02600
C2934       C  0.53404978  0.22517222  0.52349458     0.07100
C2935       C  0.55168010  0.25810722  0.51988755    -0.02700
C2936       C  0.53300810  0.29162993  0.52029780    -0.02700
C2937       C  0.49632066  0.29300826  0.52473801     0.07200
C2938       C  0.47796664  0.25977216  0.52631142    -0.02900
Br2939     Br  0.42675183  0.26002415  0.52937858    -0.01500
Br2940     Br  0.47110784  0.18212742  0.52950738    -0.01600
Br2941     Br  0.55836782  0.33569997  0.51582412    -0.01500
Br2942     Br  0.60218466  0.25707048  0.51506437    -0.01500
C2943       C  0.54345577  0.33659259  0.60587911    -0.02600
C2944       C  0.55058019  0.35628392  0.59071957     0.07100
C2945       C  0.58461066  0.37086817  0.58816207    -0.02700
C2946       C  0.60808141  0.37483173  0.60245954    -0.02700
C2947       C  0.59767645  0.36191102  0.61916766     0.07200
C2948       C  0.56644409  0.33997217  0.62033397    -0.02900
Br2949     Br  0.55191104  0.31580873  0.64148982    -0.01500
Br2950     Br  0.49997262  0.30853478  0.60753819    -0.01600
Br2951     Br  0.65138583  0.40196833  0.59873990    -0.01500
Br2952     Br  0.59660089  0.38823601  0.56513893    -0.01500
C2953       C  0.33449933  0.59029292  0.59922549    -0.02600
C2954       C  0.36001992  0.56305486  0.60303291     0.07100
C2955       C  0.36909703  0.55871275  0.62124606    -0.02700
C2956       C  0.34877693  0.57516938  0.63490131    -0.02700
C2957       C  0.32139160  0.60038059  0.63108228     0.07200
C2958       C  0.31716465  0.60982763  0.61294088    -0.02900
Br2959     Br  0.28799466  0.65090560  0.60666016    -0.01500
Br2960     Br  0.32149177  0.59975896  0.57521520    -0.01600
Br2961     Br  0.35689271  0.56099379  0.65885281    -0.01500
Br2962     Br  0.41115500  0.53135480  0.62782846    -0.01500
C2963       C  0.26190372  0.26657382  0.72991190    -0.02600
C2964       C  0.27490354  0.23619589  0.73927936     0.07100
C2965       C  0.28408202  0.24058075  0.75717363    -0.02700
C2966       C  0.28335932  0.27480019  0.76511799    -0.02700
C2967       C  0.26899892  0.30489838  0.75601218     0.07200
C2968       C  0.25875824  0.30036407  0.73821942    -0.02900
Br2969     Br  0.24220016  0.34112800  0.72456279    -0.01500
Br2970     Br  0.24845142  0.26294454  0.70552659    -0.01600
Br2971     Br  0.30281616  0.27926632  0.78850677    -0.01500
Br2972     Br  0.29509843  0.19893971  0.77150337    -0.01500
C2973       C  0.28935033  0.02704059  0.76470876    -0.02600
C2974       C  0.29058543  0.99001279  0.76122809     0.07100
C2975       C  0.28558399  0.97790259  0.74388286    -0.02700
C2976       C  0.28417194  0.00298267  0.72997181    -0.02700
C2977       C  0.28736184  0.04003763  0.73338468     0.07200
C2978       C  0.28707712  0.05200157  0.75084274    -0.02900
Br2979     Br  0.28644267  0.10265836  0.75581544    -0.01500
Br2980     Br  0.29276513  0.04326775  0.78857021    -0.01600
Br2981     Br  0.27894949  0.98694795  0.70616385    -0.01500
Br2982     Br  0.28412285  0.92710343  0.73895434    -0.01500
C2983       C  0.52003332  0.30566463  0.72021210    -0.02600
C2984       C  0.55439166  0.28971607  0.71897543     0.07100
C2985       C  0.55659349  0.25189611  0.71818213    -0.02700
C2986       C  0.52516721  0.23056665  0.71779197    -0.02700
C2987       C  0.49066083  0.24656181  0.71795174     0.07200
C2988       C  0.48843224  0.28437757  0.71955582    -0.02900
Br2989     Br  0.44219014  0.30755093  0.71833251    -0.01500
Br2990     Br  0.51640766  0.35726416  0.72152094    -0.01600
Br2991     Br  0.52949001  0.17907459  0.71556580    -0.01500
Br2992     Br  0.60279964  0.22946653  0.71541142    -0.01500
C2993       C  0.38184848  0.28390601  0.62932619    -0.02600
C2994       C  0.40686192  0.28174891  0.64351612     0.07100
C2995       C  0.42923320  0.31146428  0.64735752    -0.02700
C2996       C  0.42806287  0.34165716  0.63629065    -0.02700
C2997       C  0.40198860  0.34342388  0.62296829     0.07200
C2998       C  0.37690743  0.31626946  0.62064427    -0.02900
Br2999     Br  0.33728123  0.32301283  0.60432145    -0.01500
Br3000     Br  0.35693426  0.24286250  0.61940858    -0.01600
Br3001     Br  0.46214893  0.38020160  0.63889472    -0.01500
Br3002     Br  0.46130474  0.31173925  0.66734589    -0.01500
C3003       C  0.49421298  0.19063409  0.60237866    -0.02600
C3004       C  0.48739530  0.16566066  0.58910830     0.07100
C3005       C  0.45329581  0.15031195  0.58713106    -0.02700
C3006       C  0.42827467  0.15406797  0.60047753    -0.02700
C3007       C  0.43852685  0.17236022  0.61598399     0.07200
C3008       C  0.46964834  0.19418902  0.61579893    -0.02900
Br3009     Br  0.48077153  0.22837790  0.63385749    -0.01500
Br3010     Br  0.53948539  0.21593341  0.60394476    -0.01600
Br3011     Br  0.38170086  0.13238782  0.59715318    -0.01500
Br3012     Br  0.44253350  0.12162427  0.56676412    -0.01500
C3013       C  0.05765925  0.98929375  0.48928172    -0.02600
C3014       C  0.06420038  0.00436904  0.50604305     0.07100
C3015       C  0.03603676  0.02387332  0.51373573    -0.02700
C3016       C  0.00106136  0.02316785  0.50635807    -0.02700
C3017       C  0.99410904  0.00682751  0.48993163     0.07200
C3018       C  0.02301864  0.98959534  0.48153733    -0.02900
Br3019     Br  0.01650387  0.96553204  0.45939958    -0.01500
Br3020     Br  0.09693106  0.97085134  0.47578299    -0.01600
Br3021     Br  0.96202146  0.04171031  0.51997488    -0.01500
Br3022     Br  0.04524708  0.05479235  0.53340452    -0.01500
C3023       C  0.23633689  0.97204284  0.49673463    -0.02600
C3024       C  0.25075747  0.97222284  0.51392606     0.07100
C3025       C  0.28797556  0.97462212  0.51645095    -0.02700
C3026       C  0.31080852  0.97451872  0.50195804    -0.02700
C3027       C  0.29641104  0.97221663  0.48481507     0.07200
C3028       C  0.25913190  0.97212155  0.48223635    -0.02900
Br3029     Br  0.23967902  0.97033921  0.45874271    -0.01500
Br3030     Br  0.18560409  0.96821738  0.49282727    -0.01600
Br3031     Br  0.36182480  0.97398166  0.50589518    -0.01500
Br3032     Br  0.30747656  0.97613316  0.53990286    -0.01500
C3033       C  0.08495836  0.82776068  0.64158402    -0.02600
C3034       C  0.11478602  0.84993608  0.63818577     0.07100
C3035       C  0.14267998  0.85127426  0.65092880    -0.02700
C3036       C  0.14465478  0.82445755  0.66395097    -0.02700
C3037       C  0.12049844  0.79526399  0.66325006     0.07200
C3038       C  0.08781146  0.80029792  0.65419006    -0.02900
Br3039     Br  0.04740166  0.76969678  0.65893121    -0.01500
Br3040     Br  0.04018601  0.83527877  0.62935463    -0.01600
Br3041     Br  0.18038332  0.82786706  0.68242600    -0.01500
Br3042     Br  0.17953980  0.88757737  0.65049529    -0.01500
C3043       C  0.97949813  0.76140079  0.53385883    -0.02600
C3044       C  0.99580648  0.72700327  0.53294679     0.07100
C3045       C  0.03326589  0.72590877  0.53020253    -0.02700
C3046       C  0.05433864  0.75782657  0.53124842    -0.02700
C3047       C  0.03809777  0.79183766  0.53371969     0.07200
C3048       C  0.00031601  0.79341484  0.53339986    -0.02900
Br3049     Br  0.97723109  0.83979572  0.53272981    -0.01500
Br3050     Br  0.92832595  0.76459484  0.53635207    -0.01600
Br3051     Br  0.10570807  0.75505667  0.52962926    -0.01500
Br3052     Br  0.05594309  0.68042007  0.52587067    -0.01500
C3053       C  0.93601250  0.90909030  0.61534873    -0.02600
C3054       C  0.91409439  0.87954185  0.61193974     0.07100
C3055       C  0.92476729  0.85212503  0.60061891    -0.02700
C3056       C  0.95881948  0.85361630  0.59316905    -0.02700
C3057       C  0.98213960  0.88160466  0.59808360     0.07200
C3058       C  0.97120658  0.90790184  0.61008931    -0.02900
Br3059     Br  0.00551792  0.93861136  0.62174501    -0.01500
Br3060     Br  0.91980433  0.94779406  0.63015369    -0.01600
Br3061     Br  0.97373751  0.81643046  0.57754742    -0.01500
Br3062     Br  0.89304857  0.81223957  0.59635886    -0.01500
C3063       C  0.19543622  0.08076420  0.61385459    -0.02600
C3064       C  0.21046429  0.04812471  0.60770828     0.07100
C3065       C  0.23951308  0.03371979  0.61765741    -0.02700
C3066       C  0.25024995  0.04858088  0.63394665    -0.02700
C3067       C  0.23646188  0.08185307  0.63989833     0.07200
C3068       C  0.20983216  0.09849899  0.62908980    -0.02900
Br3069     Br  0.19465268  0.14648789  0.63461408    -0.01500
Br3070     Br  0.15503527  0.10095818  0.60145753    -0.01600
Br3071     Br  0.28579411  0.02355918  0.64808007    -0.01500
Br3072     Br  0.26594342  0.99347314  0.60846124    -0.01500
loop_ 
_geom_bond_atom_site_label_1 
_geom_bond_atom_site_label_2 
_geom_bond_distance 
_geom_bond_site_symmetry_2 
_ccdc_geom_bond_type 
Zr1           O2   2.436   1_565  S
Zr1           O3   2.444       .  S
Zr1           O4   2.604   1_565  S
Zr1           O7   2.528   1_565  S
Zr1           O9   2.397       .  S
Zr1          O10   2.428       .  S
Zr1          O11   2.397       .  S
Zr1          O12   2.405       .  S
O2           H58   0.990       .  S
O2           H66   0.990       .  S
O3           C23   1.285       .  A
O4           C25   1.318       .  A
O5          Zr15   2.412       .  S
O5           C24   1.273       .  A
O6          Zr14   2.367       .  S
O6           C25   1.271   1_565  A
O7           C24   1.302   1_545  A
O8          Zr16   2.450       .  S
O8           C23   1.287       .  A
O9          Zr14   2.412       .  S
O9          Zr16   2.386       .  S
O10         Zr15   2.403       .  S
O10         Zr16   2.359       .  S
O10          H45   0.962       .  S
O11         Zr14   2.404       .  S
O11         Zr31   2.380       .  S
O11          H48   0.965   1_565  S
O12         Zr15   2.421       .  S
O12         Zr31   2.335       .  S
Zr13         O38   2.437       .  S
Zr13         O32   2.425       .  S
Zr13         O40   2.439       .  S
Zr13         O28   2.439       .  S
Zr13         O19   2.404       .  S
Zr13         O20   2.407       .  S
Zr13         O21   2.379       .  S
Zr13         O22   2.385       .  S
Zr14         O33   2.444       .  S
Zr14         O26   2.433       .  S
Zr14         O27   2.424       .  S
Zr14         O20   2.384       .  S
Zr14         O21   2.364       .  S
Zr15         O17   2.435       .  S
Zr15         O39   2.444       .  S
Zr15         O41   2.511       .  S
Zr15         O19   2.380       .  S
Zr15         O22   2.361       .  S
Zr16         O42   2.438       .  S
Zr16         O43   2.435       .  S
Zr16         O18   2.436       .  S
Zr16         O19   2.412       .  S
Zr16         O20   2.416       .  S
O17          H54   0.990       .  S
O18          H49   0.990       .  S
O18          H63   0.990       .  S
O20          H46   0.966       .  S
O21         Zr31   2.364       .  S
O22         Zr31   2.398       .  S
O22          H47   0.960       .  S
C23        C3024   1.480       .  S
C24        C3014   1.514   1_565  S
C25        C3064   1.532       .  S
O26          H62   0.990       .  S
O27          C29   1.280       .  A
O28          C29   1.286       .  A
C29        C3034   1.491       .  S
O30         Zr31   2.436   1_545  S
O30          H59   0.990       .  S
Zr31         O34   2.435       .  S
Zr31         O35   2.437       .  S
Zr31         O36   2.363       .  S
O32          C37   1.283       .  A
O33          H50   0.990       .  S
O33          H65   0.990       .  S
O34          H51   0.990   1_565  S
O35          H55   0.989   1_455  S
O35          H64   0.990       .  S
O36          C37   1.274       .  A
C37        C3057   1.450   1_455  S
O38          H57   0.990       .  S
O38          H61   0.989       .  S
O39          H53   0.990       .  S
O39          H60   0.989       .  S
O40          C44   1.286       .  A
O41          C44   1.299       .  A
O42          H52   0.990       .  S
O43          H56   0.990       .  S
C44        C3047   1.516       .  S
Zr67         O68   2.436       .  S
Zr67         O69   2.461       .  S
Zr67         O70   2.609       .  S
Zr67         O73   2.517       .  S
Zr67         O75   2.381       .  S
Zr67         O76   2.428       .  S
Zr67         O77   2.394       .  S
Zr67         O78   2.429       .  S
O68         H124   0.990       .  S
O68         H132   0.990       .  S
O69          C89   1.288       .  A
O70          C91   1.319       .  A
O71         Zr81   2.415       .  S
O71          C90   1.276       .  A
O72         Zr80   2.340       .  S
O72          C91   1.266       .  A
O73          C90   1.301       .  A
O74         Zr82   2.435       .  S
O74          C89   1.285       .  A
O75         Zr80   2.392       .  S
O75         Zr82   2.376       .  S
O76         Zr81   2.415       .  S
O76         Zr82   2.373       .  S
O76         H111   0.963       .  S
O77         Zr80   2.414       .  S
O77         Zr97   2.405       .  S
O77         H114   0.963       .  S
O78         Zr81   2.437       .  S
O78         Zr97   2.349       .  S
Zr79        O104   2.437       .  S
Zr79         O98   2.422       .  S
Zr79        O106   2.401       .  S
Zr79         O94   2.412       .  S
Zr79         O85   2.398       .  S
Zr79         O86   2.412       .  S
Zr79         O87   2.377       .  S
Zr79         O88   2.395       .  S
Zr80         O99   2.442       .  S
Zr80         O92   2.435       .  S
Zr80         O93   2.415       .  S
Zr80         O86   2.395       .  S
Zr80         O87   2.322       .  S
Zr81         O83   2.438       .  S
Zr81        O105   2.437       .  S
Zr81        O107   2.514       .  S
Zr81         O85   2.381       .  S
Zr81         O88   2.373       .  S
Zr82        O108   2.437       .  S
Zr82        O109   2.439       .  S
Zr82         O84   2.439       .  S
Zr82         O85   2.417       .  S
Zr82         O86   2.413       .  S
O83         H120   0.990       .  S
O84         H115   0.989       .  S
O84         H129   0.990       .  S
O86         H112   0.967       .  S
O87         Zr97   2.353       .  S
O88         Zr97   2.387       .  S
O88         H113   0.965       .  S
C89        C2977   1.483       .  S
C90        C2964   1.506       .  S
C91        C3067   1.525       .  S
O92         H128   0.990       .  S
O93          C95   1.278       .  A
O94          C95   1.281       .  A
C95        C3007   1.481       .  S
O96         Zr97   2.437       .  S
O96         H125   0.989       .  S
Zr97        O100   2.439       .  S
Zr97        O101   2.446       .  S
Zr97        O102   2.381       .  S
O98         C103   1.267       .  A
O99         H116   0.990       .  S
O99         H131   0.990       .  S
O100        H117   0.990       .  S
O101        H121   0.990       .  S
O101        H130   0.990       .  S
O102        C103   1.263       .  A
C103       C2994   1.466       .  S
O104        H123   0.990       .  S
O104        H127   0.990       .  S
O105        H119   0.990       .  S
O105        H126   0.990       .  S
O106        C110   1.278       .  A
O107        C110   1.299       .  A
O108        H118   0.990       .  S
O109        H122   0.990       .  S
C110       C2987   1.507       .  S
Zr133       O134   2.436       .  S
Zr133       O135   2.488       .  S
Zr133       O136   2.508       .  S
Zr133       O139   2.626       .  S
Zr133       O141   2.425       .  S
Zr133       O142   2.394       .  S
Zr133       O143   2.467       .  S
Zr133       O144   2.409       .  S
O134        H190   0.991       .  S
O134        H198   0.989       .  S
O135        C155   1.293       .  A
O136        C157   1.296       .  A
O137       Zr147   2.382       .  S
O137        C156   1.272       .  A
O138       Zr146   2.419       .  S
O138        C157   1.275       .  A
O139        C156   1.324       .  A
O140       Zr148   2.389       .  S
O140        C155   1.275       .  A
O141       Zr146   2.425       .  S
O141       Zr148   2.375       .  S
O142       Zr147   2.392       .  S
O142       Zr148   2.393       .  S
O142        H177   0.969       .  S
O143       Zr146   2.443       .  S
O143       Zr163   2.355       .  S
O143        H180   0.960       .  S
O144       Zr147   2.399       .  S
O144       Zr163   2.403       .  S
Zr145       O170   2.436       .  S
Zr145       O164   2.386       .  S
Zr145       O172   2.389       .  S
Zr145       O160   2.421       .  S
Zr145       O151   2.397       .  S
Zr145       O152   2.382       .  S
Zr145       O153   2.366       .  S
Zr145       O154   2.390       .  S
Zr146       O165   2.437       .  S
Zr146       O158   2.436       .  S
Zr146       O159   2.526       .  S
Zr146       O152   2.384       .  S
Zr146       O153   2.362       .  S
Zr147       O149   2.436       .  S
Zr147       O171   2.434       .  S
Zr147       O173   2.402       .  S
Zr147       O151   2.382       .  S
Zr147       O154   2.388       .  S
Zr148       O174   2.436       .  S
Zr148       O175   2.437       .  S
Zr148       O150   2.437       .  S
Zr148       O151   2.386       .  S
Zr148       O152   2.398       .  S
O149        H186   0.991       .  S
O150        H181   0.990       .  S
O150        H195   0.990       .  S
O152        H178   0.967       .  S
O153       Zr163   2.381       .  S
O154       Zr163   2.345       .  S
O154        H179   0.968       .  S
C155       C2927   1.484       .  S
C156       C2954   1.562       .  S
C157       C2914   1.515       .  S
O158        H194   0.990       .  S
O159        C161   1.302       .  A
O160        C161   1.283       .  A
C161       C2937   1.523       .  S
O162       Zr163   2.435       .  S
O162        H191   0.990       .  S
Zr163       O166   2.437       .  S
Zr163       O167   2.439       .  S
Zr163       O168   2.409       .  S
O164        C169   1.274       .  A
O165        H182   0.989       .  S
O165        H197   0.989       .  S
O166        H183   0.991       .  S
O167        H187   0.990       .  S
O167        H196   0.990       .  S
O168        C169   1.281       .  A
C169       C2944   1.456       .  S
O170        H189   0.990       .  S
O170        H193   0.990       .  S
O171        H185   0.989       .  S
O171        H192   0.991       .  S
O172        C176   1.278       .  A
O173        C176   1.275       .  A
O174        H184   0.990       .  S
O175        H188   0.990       .  S
C176       C2997   1.432       .  S
Zr199       O200   2.436       .  S
Zr199       O201   2.472       .  S
Zr199       O202   2.530       .  S
Zr199       O205   2.625       .  S
Zr199       O207   2.436       .  S
Zr199       O208   2.403       .  S
Zr199       O209   2.477       .  S
Zr199       O210   2.416       .  S
O200        H256   0.990       .  S
O200        H264   0.991       .  S
O201        C221   1.291       .  A
O202        C223   1.303       .  A
O203       Zr213   2.381       .  S
O203        C222   1.271       .  A
O204       Zr212   2.408       .  S
O204        C223   1.276       .  A
O205        C222   1.324       .  A
O206       Zr214   2.422       .  S
O206        C221   1.281       .  A
O207       Zr212   2.403       .  S
O207       Zr214   2.380       .  S
O208       Zr213   2.400       .  S
O208       Zr214   2.393       .  S
O208        H243   0.967       .  S
O209       Zr212   2.441       .  S
O209       Zr229   2.341       .  S
O209        H246   0.960       .  S
O210       Zr213   2.421       .  S
O210       Zr229   2.377       .  S
Zr211       O236   2.434       .  S
Zr211       O230   2.434       .  S
Zr211       O238   2.423       .  S
Zr211       O226   2.437       .  S
Zr211       O217   2.390       .  S
Zr211       O218   2.407       .  S
Zr211       O219   2.323       .  S
Zr211       O220   2.395       .  S
Zr212       O231   2.438       .  S
Zr212       O224   2.436       .  S
Zr212       O225   2.533       .  S
Zr212       O218   2.393       .  S
Zr212       O219   2.339       .  S
Zr213       O215   2.442       .  S
Zr213       O237   2.439       .  S
Zr213       O239   2.409       .  S
Zr213       O217   2.392       .  S
Zr213       O220   2.425       .  S
Zr214       O240   2.437       .  S
Zr214       O241   2.438       .  S
Zr214       O216   2.438       .  S
Zr214       O217   2.422       .  S
Zr214       O218   2.429       .  S
O215        H252   0.991       .  S
O216        H247   0.991       .  S
O216        H261   0.990       .  S
O218        H244   0.966       .  S
O219       Zr229   2.358       .  S
O220       Zr229   2.337       .  S
O220        H245   0.962       .  S
C221       C2884   1.487       .  S
C222       C2957   1.557       .  S
C223       C2874   1.519       .  S
O224        H260   0.990       .  S
O225        C227   1.302       .  A
O226        C227   1.284       .  A
C227       C2897   1.534       .  S
O228       Zr229   2.436       .  S
O228        H257   0.990       .  S
Zr229       O232   2.437       .  S
Zr229       O233   2.443       .  S
Zr229       O234   2.399       .  S
O230        C235   1.281       .  A
O231        H248   0.989       .  S
O231        H263   0.990       .  S
O232        H249   0.990       .  S
O233        H253   0.989       .  S
O233        H262   0.990       .  S
O234        C235   1.271       .  A
C235       C3037   1.488       .  S
O236        H255   0.990       .  S
O236        H259   0.991       .  S
O237        H251   0.990       .  S
O237        H258   0.991       .  S
O238        C242   1.285       .  A
O239        C242   1.279       .  A
O240        H250   0.991       .  S
O241        H254   0.991       .  S
C242       C2904   1.460       .  S
Zr265       O266   2.438   1_545  S
Zr265       O267   2.476       .  S
Zr265       O268   2.483   1_545  S
Zr265       O271   2.591   1_545  S
Zr265       O273   2.429       .  S
Zr265       O274   2.395       .  S
Zr265       O275   2.476       .  S
Zr265       O276   2.404       .  S
O266        H322   0.990       .  S
O266        H330   0.990       .  S
O267        C287   1.291       .  A
O268        C289   1.287   1_565  A
O269       Zr279   2.400       .  S
O269        C288   1.276       .  A
O270       Zr278   2.410       .  S
O270        C289   1.271       .  A
O271        C288   1.315   1_565  A
O272       Zr280   2.397       .  S
O272        C287   1.277       .  A
O273       Zr278   2.435       .  S
O273       Zr280   2.366       .  S
O274       Zr279   2.397       .  S
O274       Zr280   2.397       .  S
O274        H309   0.963       .  S
O275       Zr278   2.452       .  S
O275       Zr295   2.354       .  S
O275        H312   0.966       .  S
O276       Zr279   2.393       .  S
O276       Zr295   2.395       .  S
Zr277       O302   2.437       .  S
Zr277       O296   2.390       .  S
Zr277       O304   2.362       .  S
Zr277       O292   2.393       .  S
Zr277       O283   2.391       .  S
Zr277       O284   2.372       .  S
Zr277       O285   2.362       .  S
Zr277       O286   2.393       .  S
Zr278       O297   2.437       .  S
Zr278       O290   2.432       .  S
Zr278       O291   2.548       .  S
Zr278       O284   2.372       .  S
Zr278       O285   2.352       .  S
Zr279       O281   2.439       .  S
Zr279       O303   2.437       .  S
Zr279       O305   2.409       .  S
Zr279       O283   2.388       .  S
Zr279       O286   2.386       .  S
Zr280       O306   2.434       .  S
Zr280       O307   2.436       .  S
Zr280       O282   2.437       .  S
Zr280       O283   2.388       .  S
Zr280       O284   2.397       .  S
O281        H318   0.990       .  S
O282        H313   0.990       .  S
O282        H327   0.991       .  S
O284        H310   0.967       .  S
O285       Zr295   2.387       .  S
O286       Zr295   2.356       .  S
O286        H311   0.961       .  S
C287       C2844   1.485       .  S
C288       C2864   1.557   1_545  S
C289       C2834   1.507       .  S
O290        H326   0.990       .  S
O291        C293   1.306       .  A
O292        C293   1.275       .  A
C293       C2934   1.517       .  S
O294       Zr295   2.436       .  S
O294        H323   0.990   1_545  S
Zr295       O298   2.434       .  S
Zr295       O299   2.440       .  S
Zr295       O300   2.395       .  S
O296        C301   1.274       .  A
O297        H314   0.989       .  S
O297        H329   0.988       .  S
O298        H315   0.991       .  S
O299        H319   0.990       .  S
O299        H328   0.990       .  S
O300        C301   1.278       .  A
C301       C3004   1.450       .  S
O302        H321   0.989       .  S
O302        H325   0.990       .  S
O303        H317   0.990       .  S
O303        H324   0.989       .  S
O304        C308   1.271       .  A
O305        C308   1.277       .  A
O306        H316   0.990       .  S
O307        H320   0.990       .  S
C308       C2857   1.427       .  S
Zr331       O332   2.436       .  S
Zr331       O333   2.465       .  S
Zr331       O334   2.514       .  S
Zr331       O337   2.581       .  S
Zr331       O339   2.414       .  S
Zr331       O340   2.389       .  S
Zr331       O341   2.452       .  S
Zr331       O342   2.411       .  S
O332        H388   0.990       .  S
O332        H396   0.989       .  S
O333        C353   1.289       .  A
O334        C355   1.299       .  A
O335       Zr345   2.390       .  S
O335        C354   1.268       .  A
O336       Zr344   2.408       .  S
O336        C355   1.275       .  A
O337        C354   1.310       .  A
O338       Zr346   2.422       .  S
O338        C353   1.281       .  A
O339       Zr344   2.429       .  S
O339       Zr346   2.372       .  S
O340       Zr345   2.400       .  S
O340       Zr346   2.378       .  S
O340        H375   0.967       .  S
O341       Zr344   2.430       .  S
O341       Zr361   2.363       .  S
O341        H378   0.956       .  S
O342       Zr345   2.389       .  S
O342       Zr361   2.390       .  S
Zr343       O368   2.439       .  S
Zr343       O362   2.398       .  S
Zr343       O370   2.381       .  S
Zr343       O358   2.423       .  S
Zr343       O349   2.400       .  S
Zr343       O350   2.382       .  S
Zr343       O351   2.354       .  S
Zr343       O352   2.389       .  S
Zr344       O363   2.435       .  S
Zr344       O356   2.435       .  S
Zr344       O357   2.535       .  S
Zr344       O350   2.379       .  S
Zr344       O351   2.358       .  S
Zr345       O347   2.440       .  S
Zr345       O369   2.438       .  S
Zr345       O371   2.396       .  S
Zr345       O349   2.397       .  S
Zr345       O352   2.386       .  S
Zr346       O372   2.440       .  S
Zr346       O373   2.435       .  S
Zr346       O348   2.437       .  S
Zr346       O349   2.397       .  S
Zr346       O350   2.410       .  S
O347        H384   0.990       .  S
O348        H379   0.990       .  S
O348        H393   0.990       .  S
O350        H376   0.965       .  S
O351       Zr361   2.389       .  S
O352       Zr361   2.350       .  S
O352        H377   0.966       .  S
C353       C2814   1.486       .  S
C354       C2867   1.533       .  S
C355       C2804   1.515       .  S
O356        H392   0.990       .  S
O357        C359   1.304       .  A
O358        C359   1.282       .  A
C359       C2894   1.525       .  S
O360       Zr361   2.436       .  S
O360        H389   0.990       .  S
Zr361       O364   2.433       .  S
Zr361       O365   2.442       .  S
Zr361       O366   2.412       .  S
O362        C367   1.275       .  A
O363        H380   0.990       .  S
O363        H395   0.989       .  S
O364        H381   0.990       .  S
O365        H385   0.990       .  S
O365        H394   0.990       .  S
O366        C367   1.281       .  A
C367       C2824   1.467       .  S
O368        H387   0.990       .  S
O368        H391   0.990       .  S
O369        H383   0.990       .  S
O369        H390   0.989       .  S
O370        C374   1.277       .  A
O371        C374   1.275       .  A
O372        H382   0.989       .  S
O373        H386   0.990       .  S
C374       C3054   1.425       .  S
Zr397       O398   2.437       .  S
Zr397       O399   2.468       .  S
Zr397       O400   2.606       .  S
Zr397       O403   2.526       .  S
Zr397       O405   2.372       .  S
Zr397       O406   2.428       .  S
Zr397       O407   2.403       .  S
Zr397       O408   2.316       .  S
O398        H454   0.991       .  S
O398        H462   0.990       .  S
O399        C419   1.291       .  A
O400        C421   1.319       .  A
O401       Zr411   2.394       .  S
O401        C420   1.279       .  A
O402       Zr410   2.372       .  S
O402        C421   1.268       .  A
O403        C420   1.305       .  A
O404       Zr412   2.453       .  S
O404        C419   1.288       .  A
O405       Zr410   2.401       .  S
O405       Zr412   2.386       .  S
O406       Zr411   2.387       .  S
O406       Zr412   2.385       .  S
O406        H441   0.960       .  S
O407       Zr410   2.392       .  S
O407       Zr427   2.407       .  S
O407        H444   0.968       .  S
O408       Zr411   2.320       .  S
O408       Zr427   2.285       .  S
Zr409       O434   2.443       .  S
Zr409       O428   2.433   1_655  S
Zr409       O436   2.412       .  S
Zr409       O424   2.416       .  S
Zr409       O415   2.413       .  S
Zr409       O416   2.409       .  S
Zr409       O417   2.385       .  S
Zr409       O418   2.374       .  S
Zr410       O429   2.438       .  S
Zr410       O422   2.435       .  S
Zr410       O423   2.389       .  S
Zr410       O416   2.396       .  S
Zr410       O417   2.383       .  S
Zr411       O413   2.436       .  S
Zr411       O435   2.439       .  S
Zr411       O437   2.544       .  S
Zr411       O415   2.368       .  S
Zr411       O418   2.325       .  S
Zr412       O438   2.438       .  S
Zr412       O439   2.443       .  S
Zr412       O414   2.434       .  S
Zr412       O415   2.427       .  S
Zr412       O416   2.422       .  S
O413        H450   0.990       .  S
O414        H445   0.989       .  S
O414        H459   0.991       .  S
O416        H442   0.966       .  S
O417       Zr427   2.360       .  S
O418       Zr427   2.381       .  S
O418        H443   0.967   1_655  S
C419       C2784   1.493       .  S
C420       C2777   1.501   1_655  S
C421       C2794   1.533       .  S
O422        H458   0.990       .  S
O423        C425   1.272       .  A
O424        C425   1.284       .  A
C425       C2827   1.470       .  S
O426       Zr427   2.438   1_455  S
O426        H455   0.989       .  S
Zr427       O430   2.436   1_655  S
Zr427       O431   2.434   1_655  S
Zr427       O432   2.412   1_655  S
O428        C433   1.284       .  A
O429        H446   0.991       .  S
O429        H461   0.989       .  S
O430        H447   0.991       .  S
O431        H451   0.991       .  S
O431        H460   0.990       .  S
O432        C433   1.284       .  A
C433       C2907   1.475       .  S
O434        H453   0.990       .  S
O434        H457   0.991       .  S
O435        H449   0.989       .  S
O435        H456   0.991       .  S
O436        C440   1.280       .  A
O437        C440   1.303       .  A
O438        H448   0.990       .  S
O439        H452   0.989       .  S
C440       C3044   1.523       .  S
Zr463       O464   2.436       .  S
Zr463       O465   2.458       .  S
Zr463       O466   2.595       .  S
Zr463       O469   2.523       .  S
Zr463       O471   2.389       .  S
Zr463       O472   2.427       .  S
Zr463       O473   2.409       .  S
Zr463       O474   2.408       .  S
O464        H520   0.990       .  S
O464        H528   0.990       .  S
O465        C485   1.287       .  A
O466        C487   1.316       .  A
O467       Zr477   2.425       .  S
O467        C486   1.279       .  A
O468       Zr476   2.370       .  S
O468        C487   1.272       .  A
O469        C486   1.303       .  A
O470       Zr478   2.430       .  S
O470        C485   1.284       .  A
O471       Zr476   2.405       .  S
O471       Zr478   2.385       .  S
O472       Zr477   2.403       .  S
O472       Zr478   2.371       .  S
O472        H507   0.963       .  S
O473       Zr476   2.405       .  S
O473       Zr493   2.405       .  S
O473        H510   0.966       .  S
O474       Zr477   2.414       .  S
O474       Zr493   2.327       .  S
Zr475       O500   2.442       .  S
Zr475       O494   2.404       .  S
Zr475       O502   2.406       .  S
Zr475       O490   2.397       .  S
Zr475       O481   2.388       .  S
Zr475       O482   2.391       .  S
Zr475       O483   2.374       .  S
Zr475       O484   2.383       .  S
Zr476       O495   2.444       .  S
Zr476       O488   2.433       .  S
Zr476       O489   2.431       .  S
Zr476       O482   2.386       .  S
Zr476       O483   2.348       .  S
Zr477       O479   2.438       .  S
Zr477       O501   2.436       .  S
Zr477       O503   2.519       .  S
Zr477       O481   2.380       .  S
Zr477       O484   2.364       .  S
Zr478       O504   2.439       .  S
Zr478       O505   2.436       .  S
Zr478       O480   2.438       .  S
Zr478       O481   2.410       .  S
Zr478       O482   2.398       .  S
O479        H516   0.990       .  S
O480        H511   0.990       .  S
O480        H525   0.990       .  S
O482        H508   0.966       .  S
O483       Zr493   2.370       .  S
O484       Zr493   2.390       .  S
O484        H509   0.964       .  S
C485       C2767   1.479       .  S
C486       C2754   1.514       .  S
C487       C2797   1.536       .  S
O488        H524   0.990       .  S
O489        C491   1.282       .  A
O490        C491   1.276       .  A
C491       C2947   1.486       .  S
O492       Zr493   2.438       .  S
O492        H521   0.990       .  S
Zr493       O496   2.436       .  S
Zr493       O497   2.440       .  S
Zr493       O498   2.384       .  S
O494        C499   1.274       .  A
O495        H512   0.989       .  S
O495        H527   0.991       .  S
O496        H513   0.991       .  S
O497        H517   0.991       .  S
O497        H526   0.989       .  S
O498        C499   1.270       .  A
C499       C2854   1.434       .  S
O500        H519   0.990       .  S
O500        H523   0.990       .  S
O501        H515   0.990       .  S
O501        H522   0.990       .  S
O502        C506   1.278       .  A
O503        C506   1.300       .  A
O504        H514   0.990       .  S
O505        H518   0.990       .  S
C506       C2984   1.503       .  S
Zr529       O530   2.436       .  S
Zr529       O531   2.436       .  S
Zr529       O532   2.601       .  S
Zr529       O535   2.520       .  S
Zr529       O537   2.385       .  S
Zr529       O538   2.434       .  S
Zr529       O539   2.399       .  S
Zr529       O540   2.415       .  S
O530        H586   0.990       .  S
O530        H594   0.990       .  S
O531        C551   1.283       .  A
O532        C553   1.317       .  A
O533       Zr543   2.424       .  S
O533        C552   1.273       .  A
O534       Zr542   2.361       .  S
O534        C553   1.268       .  A
O535        C552   1.301       .  A
O536       Zr544   2.443       .  S
O536        C551   1.287       .  A
O537       Zr542   2.398       .  S
O537       Zr544   2.379       .  S
O538       Zr543   2.408       .  S
O538       Zr544   2.368       .  S
O538        H573   0.962       .  S
O539       Zr542   2.406       .  S
O539       Zr559   2.399       .  S
O539        H576   0.966       .  S
O540       Zr543   2.420       .  S
O540       Zr559   2.324       .  S
Zr541       O566   2.440       .  S
Zr541       O560   2.425       .  S
Zr541       O568   2.424       .  S
Zr541       O556   2.414       .  S
Zr541       O547   2.401       .  S
Zr541       O548   2.400       .  S
Zr541       O549   2.371       .  S
Zr541       O550   2.377       .  S
Zr542       O561   2.443       .  S
Zr542       O554   2.435       .  S
Zr542       O555   2.414       .  S
Zr542       O548   2.385       .  S
Zr542       O549   2.357       .  S
Zr543       O545   2.435       .  S
Zr543       O567   2.437       .  S
Zr543       O569   2.513       .  S
Zr543       O547   2.382       .  S
Zr543       O550   2.368       .  S
Zr544       O570   2.435       .  S
Zr544       O571   2.439       .  S
Zr544       O546   2.440       .  S
Zr544       O547   2.420       .  S
Zr544       O548   2.407       .  S
O545        H582   0.990       .  S
O546        H577   0.990       .  S
O546        H591   0.990       .  S
O548        H574   0.966       .  S
O549       Zr559   2.367       .  S
O550       Zr559   2.386       .  S
O550        H575   0.961       .  S
C551       C2704   1.478       .  S
C552       C2694   1.512       .  S
C553       C2744   1.530       .  S
O554        H590   0.990       .  S
O555        C557   1.277       .  A
O556        C557   1.280       .  A
C557       C2724   1.484       .  S
O558       Zr559   2.426       .  S
O558        H587   0.991       .  S
Zr559       O562   2.435       .  S
Zr559       O563   2.439       .  S
Zr559       O564   2.353       .  S
O560        C565   1.281       .  A
O561        H578   0.990       .  S
O561        H593   0.991       .  S
O562        H579   0.990       .  S
O563        H583   0.991       .  S
O563        H592   0.990       .  S
O564        C565   1.270       .  A
C565       C2737   1.436       .  S
O566        H585   0.990       .  S
O566        H589   0.990       .  S
O567        H581   0.990       .  S
O567        H588   0.990       .  S
O568        C572   1.282       .  A
O569        C572   1.299       .  A
O570        H580   0.990       .  S
O571        H584   0.990       .  S
C572       C2714   1.510       .  S
Zr595       O596   2.439       .  S
Zr595       O597   2.458       .  S
Zr595       O598   2.592       .  S
Zr595       O601   2.524       .  S
Zr595       O603   2.381       .  S
Zr595       O604   2.435       .  S
Zr595       O605   2.402       .  S
Zr595       O606   2.395       .  S
O596        H652   0.990       .  S
O596        H660   0.990       .  S
O597        C617   1.288       .  A
O598        C619   1.316       .  A
O599       Zr609   2.407       .  S
O599        C618   1.282       .  A
O600       Zr608   2.367       .  S
O600        C619   1.271       .  A
O601        C618   1.303       .  A
O602       Zr610   2.446       .  S
O602        C617   1.287       .  A
O603       Zr608   2.399       .  S
O603       Zr610   2.385       .  S
O604       Zr609   2.400       .  S
O604       Zr610   2.380       .  S
O604        H639   0.964       .  S
O605       Zr608   2.392       .  S
O605       Zr625   2.404       .  S
O605        H642   0.967       .  S
O606       Zr609   2.412       .  S
O606       Zr625   2.344       .  S
Zr607       O632   2.439       .  S
Zr607       O626   2.441       .  S
Zr607       O634   2.405       .  S
Zr607       O622   2.402       .  S
Zr607       O613   2.400       .  S
Zr607       O614   2.406       .  S
Zr607       O615   2.371       .  S
Zr607       O616   2.371       .  S
Zr608       O627   2.440       .  S
Zr608       O620   2.437       .  S
Zr608       O621   2.403       .  S
Zr608       O614   2.393       .  S
Zr608       O615   2.370       .  S
Zr609       O611   2.436       .  S
Zr609       O633   2.436       .  S
Zr609       O635   2.534       .  S
Zr609       O613   2.370       .  S
Zr609       O616   2.340       .  S
Zr610       O636   2.437       .  S
Zr610       O637   2.435       .  S
Zr610       O612   2.436       .  S
Zr610       O613   2.410       .  S
Zr610       O614   2.416       .  S
O611        H648   0.991       .  S
O612        H643   0.990       .  S
O612        H657   0.990       .  S
O614        H640   0.965       .  S
O615       Zr625   2.358       .  S
O616       Zr625   2.395       .  S
O616        H641   0.966       .  S
C617       C2657   1.482       .  S
C618       C2647   1.492       .  S
C619       C2747   1.526       .  S
O620        H656   0.990       .  S
O621        C623   1.276       .  A
O622        C623   1.280       .  A
C623       C2684   1.473       .  S
O624       Zr625   2.439       .  S
O624        H653   0.991       .  S
Zr625       O628   2.439       .  S
Zr625       O629   2.438       .  S
Zr625       O630   2.398       .  S
O626        C631   1.285       .  A
O627        H644   0.990       .  S
O627        H659   0.990       .  S
O628        H645   0.990       .  S
O629        H649   0.989       .  S
O629        H658   0.990       .  S
O630        C631   1.282       .  A
C631       C2677   1.476       .  S
O632        H651   0.990       .  S
O632        H655   0.991       .  S
O633        H647   0.990       .  S
O633        H654   0.990   1_554  S
O634        C638   1.278       .  A
O635        C638   1.302       .  A
O636        H646   0.990       .  S
O637        H650   0.990       .  S
C638       C2667   1.516       .  S
Zr661       O662   2.437       .  S
Zr661       O663   2.456       .  S
Zr661       O664   2.505       .  S
Zr661       O667   2.597       .  S
Zr661       O669   2.434   1_545  S
Zr661       O670   2.399   1_545  S
Zr661       O671   2.458   1_545  S
Zr661       O672   2.399   1_545  S
O662        H718   0.990       .  S
O662        H726   0.990       .  S
O663        C683   1.286       .  A
O664        C685   1.293       .  A
O665       Zr675   2.385   1_545  S
O665        C684   1.273       .  A
O666       Zr674   2.408       .  S
O666        C685   1.273   1_565  A
O667        C684   1.317       .  A
O668       Zr676   2.417       .  S
O668        C683   1.280   1_565  A
O669       Zr674   2.437       .  S
O669       Zr676   2.367       .  S
O670       Zr675   2.390       .  S
O670       Zr676   2.394       .  S
O670        H705   0.967       .  S
O671       Zr674   2.434       .  S
O671       Zr691   2.342       .  S
O671        H708   0.956       .  S
O672       Zr675   2.398       .  S
O672       Zr691   2.391       .  S
Zr673       O698   2.437       .  S
Zr673       O692   2.409       .  S
Zr673       O700   2.376       .  S
Zr673       O688   2.402       .  S
Zr673       O679   2.401       .  S
Zr673       O680   2.385       .  S
Zr673       O681   2.367       .  S
Zr673       O682   2.390       .  S
Zr674       O693   2.437   1_655  S
Zr674       O686   2.438   1_554  S
Zr674       O687   2.546       .  S
Zr674       O680   2.376       .  S
Zr674       O681   2.357       .  S
Zr675       O677   2.439       .  S
Zr675       O699   2.439       .  S
Zr675       O701   2.403       .  S
Zr675       O679   2.384       .  S
Zr675       O682   2.387       .  S
Zr676       O702   2.438       .  S
Zr676       O703   2.436       .  S
Zr676       O678   2.441       .  S
Zr676       O679   2.398       .  S
Zr676       O680   2.408       .  S
O677        H714   0.990       .  S
O678        H709   0.990   1_554  S
O678        H723   0.990       .  S
O680        H706   0.965       .  S
O681       Zr691   2.386       .  S
O682       Zr691   2.359       .  S
O682        H707   0.966       .  S
C683       C2604   1.479       .  S
C684       C2627   1.540       .  S
C685       C2594   1.509       .  S
O686        H722   0.990       .  S
O687        C689   1.305       .  A
O688        C689   1.278       .  A
C689       C2637   1.524       .  S
O690       Zr691   2.434   1_545  S
O690        H719   0.991       .  S
Zr691       O694   2.435   1_655  S
Zr691       O695   2.437       .  S
Zr691       O696   2.391   1_655  S
O692        C697   1.278   1_655  A
O693        H710   0.990       .  S
O693        H725   0.990       .  S
O694        H711   0.990       .  S
O695        H715   0.990   1_655  S
O695        H724   0.990       .  S
O696        C697   1.278       .  A
C697       C2617   1.453       .  S
O698        H717   0.991       .  S
O698        H721   0.989       .  S
O699        H713   0.990       .  S
O699        H720   0.990       .  S
O700        C704   1.274       .  A
O701        C704   1.276       .  A
O702        H712   0.990       .  S
O703        H716   0.990       .  S
C704       C2734   1.432       .  S
Zr727       O728   2.437       .  S
Zr727       O729   2.472       .  S
Zr727       O730   2.495       .  S
Zr727       O733   2.609       .  S
Zr727       O735   2.432       .  S
Zr727       O736   2.399       .  S
Zr727       O737   2.463       .  S
Zr727       O738   2.386       .  S
O728        H784   0.990       .  S
O728        H792   0.990       .  S
O729        C749   1.290       .  A
O730        C751   1.290       .  A
O731       Zr741   2.389       .  S
O731        C750   1.275       .  A
O732       Zr740   2.400       .  S
O732        C751   1.269       .  A
O733        C750   1.320       .  A
O734       Zr742   2.412       .  S
O734        C749   1.279       .  A
O735       Zr740   2.430       .  S
O735       Zr742   2.356       .  S
O736       Zr741   2.395       .  S
O736       Zr742   2.398       .  S
O736        H771   0.963       .  S
O737       Zr740   2.460       .  S
O737       Zr757   2.372       .  S
O737        H774   0.962       .  S
O738       Zr741   2.392       .  S
O738       Zr757   2.376       .  S
Zr739       O764   2.438       .  S
Zr739       O758   2.427       .  S
Zr739       O766   2.352       .  S
Zr739       O754   2.401       .  S
Zr739       O745   2.398       .  S
Zr739       O746   2.386       .  S
Zr739       O747   2.356       .  S
Zr739       O748   2.387       .  S
Zr740       O759   2.438       .  S
Zr740       O752   2.432       .  S
Zr740       O753   2.561       .  S
Zr740       O746   2.376       .  S
Zr740       O747   2.342       .  S
Zr741       O743   2.438       .  S
Zr741       O765   2.436       .  S
Zr741       O767   2.414       .  S
Zr741       O745   2.376       .  S
Zr741       O748   2.390       .  S
Zr742       O768   2.438       .  S
Zr742       O769   2.435       .  S
Zr742       O744   2.436       .  S
Zr742       O745   2.389       .  S
Zr742       O746   2.412       .  S
O743        H780   0.990       .  S
O744        H775   0.990       .  S
O744        H789   0.990       .  S
O746        H772   0.966       .  S
O747       Zr757   2.383       .  S
O748       Zr757   2.369       .  S
O748        H773   0.959       .  S
C749       C2567   1.482       .  S
C750       C2624   1.543       .  S
C751       C2557   1.508       .  S
O752        H788   0.990       .  S
O753        C755   1.308       .  A
O754        C755   1.276       .  A
C755       C2574   1.534       .  S
O756       Zr757   2.439       .  S
O756        H785   0.991       .  S
Zr757       O760   2.437       .  S
Zr757       O761   2.444       .  S
Zr757       O762   2.392       .  S
O758        C763   1.282       .  A
O759        H776   0.990       .  S
O759        H791   0.988       .  S
O760        H777   0.990       .  S
O761        H781   0.990       .  S
O761        H790   0.990       .  S
O762        C763   1.278       .  A
C763       C2687   1.458       .  S
O764        H783   0.990       .  S
O764        H787   0.990       .  S
O765        H779   0.990       .  S
O765        H786   0.990       .  S
O766        C770   1.272       .  A
O767        C770   1.277       .  A
O768        H778   0.990       .  S
O769        H782   0.990       .  S
C770       C2587   1.427       .  S
Zr793       O794   2.435       .  S
Zr793       O795   2.474       .  S
Zr793       O796   2.618       .  S
Zr793       O799   2.537       .  S
Zr793       O801   2.387       .  S
Zr793       O802   2.431       .  S
Zr793       O803   2.410       .  S
Zr793       O804   2.409       .  S
O794        H850   0.990       .  S
O794        H858   0.990       .  S
O795        C815   1.291       .  A
O796        C817   1.320       .  A
O797       Zr807   2.425       .  S
O797        C816   1.286       .  A
O798       Zr806   2.369       .  S
O798        C817   1.269       .  A
O799        C816   1.308       .  A
O800       Zr808   2.435       .  S
O800        C815   1.284       .  A
O801       Zr806   2.406       .  S
O801       Zr808   2.382       .  S
O802       Zr807   2.408       .  S
O802       Zr808   2.378       .  S
O802        H837   0.965       .  S
O803       Zr806   2.402       .  S
O803       Zr823   2.412       .  S
O803        H840   0.965       .  S
O804       Zr807   2.415       .  S
O804       Zr823   2.320       .  S
Zr805       O830   2.440       .  S
Zr805       O824   2.410       .  S
Zr805       O832   2.398       .  S
Zr805       O820   2.406       .  S
Zr805       O811   2.400       .  S
Zr805       O812   2.396       .  S
Zr805       O813   2.374       .  S
Zr805       O814   2.385       .  S
Zr806       O825   2.444       .  S
Zr806       O818   2.436       .  S
Zr806       O819   2.434       .  S
Zr806       O812   2.384       .  S
Zr806       O813   2.352       .  S
Zr807       O809   2.439       .  S
Zr807       O831   2.439       .  S
Zr807       O833   2.528       .  S
Zr807       O811   2.380       .  S
Zr807       O814   2.360       .  S
Zr808       O834   2.436       .  S
Zr808       O835   2.436       .  S
Zr808       O810   2.438       .  S
Zr808       O811   2.416       .  S
Zr808       O812   2.410       .  S
O809        H846   0.990       .  S
O810        H841   0.990   1_565  S
O810        H855   0.989       .  S
O812        H838   0.967       .  S
O813       Zr823   2.373       .  S
O814       Zr823   2.392       .  S
O814        H839   0.967       .  S
C815       C2524   1.489       .  S
C816       C2514   1.500       .  S
C817       C2544   1.550       .  S
O818        H854   0.990       .  S
O819        C821   1.280       .  A
O820        C821   1.277       .  A
C821       C2614   1.485       .  S
O822       Zr823   2.440       .  S
O822        H851   0.990       .  S
Zr823       O826   2.440       .  S
Zr823       O827   2.435       .  S
Zr823       O828   2.378       .  S
O824        C829   1.273       .  A
O825        H842   0.991       .  S
O825        H857   0.990       .  S
O826        H843   0.990       .  S
O827        H847   0.989       .  S
O827        H856   0.990       .  S
O828        C829   1.264       .  A
C829       C2537   1.432       .  S
O830        H849   0.990       .  S
O830        H853   0.990       .  S
O831        H845   0.991       .  S
O831        H852   0.990       .  S
O832        C836   1.277       .  A
O833        C836   1.302       .  A
O834        H844   0.990       .  S
O835        H848   0.990       .  S
C836       C2717   1.505       .  S
Zr859       O860   2.435   1_545  S
Zr859       O861   2.443       .  S
Zr859       O862   2.624   1_545  S
Zr859       O865   2.550       .  S
Zr859       O867   2.378       .  S
Zr859       O868   2.438       .  S
Zr859       O869   2.408       .  S
Zr859       O870   2.409       .  S
O860        H916   0.990       .  S
O860        H924   0.990       .  S
O861        C881   1.286       .  A
O862        C883   1.323       .  A
O863       Zr873   2.428       .  S
O863        C882   1.278       .  A
O864       Zr872   2.371       .  S
O864        C883   1.268   1_545  A
O865        C882   1.308       .  A
O866       Zr874   2.460       .  S
O866        C881   1.289       .  A
O867       Zr872   2.401       .  S
O867       Zr874   2.377       .  S
O868       Zr873   2.415       .  S
O868       Zr874   2.370       .  S
O868        H903   0.964       .  S
O869       Zr872   2.403       .  S
O869       Zr889   2.414       .  S
O869        H906   0.962   1_545  S
O870       Zr873   2.419       .  S
O870       Zr889   2.329       .  S
Zr871       O896   2.437       .  S
Zr871       O890   2.421       .  S
Zr871       O898   2.409       .  S
Zr871       O886   2.400       .  S
Zr871       O877   2.404       .  S
Zr871       O878   2.403       .  S
Zr871       O879   2.374       .  S
Zr871       O880   2.379       .  S
Zr872       O891   2.441       .  S
Zr872       O884   2.435       .  S
Zr872       O885   2.424       .  S
Zr872       O878   2.395       .  S
Zr872       O879   2.358       .  S
Zr873       O875   2.437       .  S
Zr873       O897   2.436       .  S
Zr873       O899   2.540       .  S
Zr873       O877   2.376       .  S
Zr873       O880   2.364       .  S
Zr874       O900   2.437       .  S
Zr874       O901   2.438       .  S
Zr874       O876   2.437       .  S
Zr874       O877   2.419       .  S
Zr874       O878   2.418       .  S
O875        H912   0.990   1_554  S
O876        H907   0.990       .  S
O876        H921   0.990       .  S
O878        H904   0.969       .  S
O879       Zr889   2.371       .  S
O880       Zr889   2.394       .  S
O880        H905   0.965       .  S
C881       C2494   1.492       .  S
C882       C2487   1.521       .  S
C883       C2547   1.540       .  S
O884        H920   0.989       .  S
O885        C887   1.281       .  A
O886        C887   1.277       .  A
C887       C2507   1.471       .  S
O888       Zr889   2.437   1_565  S
O888        H917   0.991       .  S
Zr889       O892   2.435       .  S
Zr889       O893   2.437       .  S
Zr889       O894   2.382       .  S
O890        C895   1.279       .  A
O891        H908   0.991       .  S
O891        H923   0.990       .  S
O892        H909   0.990       .  S
O893        H913   0.990       .  S
O893        H922   0.990       .  S
O894        C895   1.268       .  A
C895       C2584   1.441       .  S
O896        H915   0.990       .  S
O896        H919   0.990       .  S
O897        H911   0.990       .  S
O897        H918   0.991   1_554  S
O898        C902   1.279       .  A
O899        C902   1.305       .  A
O900        H910   0.990       .  S
O901        H914   0.990       .  S
C902       C2664   1.515       .  S
Zr925       O926   2.438       .  S
Zr925       O927   2.441       .  S
Zr925       O928   2.515       .  S
Zr925       O931   2.602       .  S
Zr925       O933   2.427       .  S
Zr925       O934   2.390       .  S
Zr925       O935   2.455       .  S
Zr925       O936   2.404       .  S
O926        H982   0.990       .  S
O926        H990   0.990       .  S
O927        C947   1.285       .  A
O928        C949   1.298       .  A
O929       Zr939   2.379       .  S
O929        C948   1.271       .  A
O930       Zr938   2.417       .  S
O930        C949   1.275       .  A
O931        C948   1.319       .  A
O932       Zr940   2.436       .  S
O932        C947   1.284       .  A
O933       Zr938   2.429       .  S
O933       Zr940   2.366       .  S
O934       Zr939   2.401       .  S
O934       Zr940   2.382       .  S
O934        H969   0.967       .  S
O935       Zr938   2.438       .  S
O935       Zr955   2.336       .  S
O935        H972   0.960       .  S
O936       Zr939   2.397       .  S
O936       Zr955   2.394       .  S
Zr937       O962   2.437       .  S
Zr937       O956   2.412       .  S
Zr937       O964   2.427       .  S
Zr937       O952   2.432       .  S
Zr937       O943   2.403       .  S
Zr937       O944   2.401       .  S
Zr937       O945   2.368       .  S
Zr937       O946   2.388       .  S
Zr938       O957   2.436       .  S
Zr938       O950   2.435       .  S
Zr938       O951   2.537       .  S
Zr938       O944   2.382       .  S
Zr938       O945   2.353       .  S
Zr939       O941   2.437       .  S
Zr939       O963   2.438       .  S
Zr939       O965   2.417       .  S
Zr939       O943   2.384       .  S
Zr939       O946   2.381       .  S
Zr940       O966   2.436       .  S
Zr940       O967   2.437       .  S
Zr940       O942   2.441       .  S
Zr940       O943   2.410       .  S
Zr940       O944   2.414       .  S
O941        H978   0.990       .  S
O942        H973   0.990       .  S
O942        H987   0.990       .  S
O944        H970   0.967       .  S
O945       Zr955   2.386       .  S
O946       Zr955   2.346       .  S
O946        H971   0.962       .  S
C947       C2464   1.484       .  S
C948       C2474   1.537       .  S
C949       C2454   1.516       .  S
O950        H986   0.990       .  S
O951        C953   1.305       .  A
O952        C953   1.284       .  A
C953       C2577   1.528       .  S
O954       Zr955   2.435       .  S
O954        H983   0.990       .  S
Zr955       O958   2.436       .  S
Zr955       O959   2.442       .  S
Zr955       O960   2.398       .  S
O956        C961   1.280       .  A
O957        H974   0.990       .  S
O957        H989   0.990       .  S
O958        H975   0.990       .  S
O959        H979   0.990       .  S
O959        H988   0.990       .  S
O960        C961   1.279       .  A
C961       C2504   1.474       .  S
O962        H981   0.990       .  S
O962        H985   0.990       .  S
O963        H977   0.990       .  S
O963        H984   0.990       .  S
O964        C968   1.285       .  A
O965        C968   1.280       .  A
O966        H976   0.991       .  S
O967        H980   0.990       .  S
C968       C2674   1.471       .  S
Zr991       O992   2.437       .  S
Zr991       O993   2.470       .  S
Zr991       O994   2.492       .  S
Zr991       O997   2.601       .  S
Zr991       O999   2.425       .  S
Zr991      O1000   2.388       .  S
Zr991      O1001   2.468       .  S
Zr991      O1002   2.410       .  S
O992       H1048   0.990       .  S
O992       H1056   0.990       .  S
O993       C1013   1.290       .  A
O994       C1015   1.292       .  A
O995      Zr1005   2.391       .  S
O995       C1014   1.274       .  A
O996      Zr1004   2.419       .  S
O996       C1015   1.275       .  A
O997       C1014   1.318       .  A
O998      Zr1006   2.412       .  S
O998       C1013   1.279       .  A
O999      Zr1004   2.431       .  S
O999      Zr1006   2.365       .  S
O1000     Zr1005   2.398       .  S
O1000     Zr1006   2.390       .  S
O1000      H1035   0.964       .  S
O1001     Zr1004   2.441       .  S
O1001     Zr1021   2.348       .  S
O1001      H1038   0.962       .  S
O1002     Zr1005   2.400       .  S
O1002     Zr1021   2.406       .  S
Zr1003     O1028   2.438       .  S
Zr1003     O1022   2.396       .  S
Zr1003     O1030   2.373       .  S
Zr1003     O1018   2.387       .  S
Zr1003     O1009   2.390       .  S
Zr1003     O1010   2.381       .  S
Zr1003     O1011   2.362       .  S
Zr1003     O1012   2.387       .  S
Zr1004     O1023   2.435       .  S
Zr1004     O1016   2.435       .  S
Zr1004     O1017   2.544       .  S
Zr1004     O1010   2.377       .  S
Zr1004     O1011   2.361       .  S
Zr1005     O1007   2.439       .  S
Zr1005     O1029   2.440       .  S
Zr1005     O1031   2.410       .  S
Zr1005     O1009   2.386       .  S
Zr1005     O1012   2.384       .  S
Zr1006     O1032   2.436       .  S
Zr1006     O1033   2.436       .  S
Zr1006     O1008   2.438       .  S
Zr1006     O1009   2.396       .  S
Zr1006     O1010   2.404       .  S
O1007      H1044   0.991       .  S
O1008      H1039   0.991       .  S
O1008      H1053   0.990       .  S
O1010      H1036   0.965       .  S
O1011     Zr1021   2.381       .  S
O1012     Zr1021   2.344       .  S
O1012      H1037   0.966       .  S
C1013      C2444   1.485       .  S
C1014      C2477   1.549       .  S
C1015      C2434   1.508       .  S
O1016      H1052   0.990   1_554  S
O1017      C1019   1.306       .  A
O1018      C1019   1.275       .  A
C1019      C2634   1.516       .  S
O1020     Zr1021   2.433       .  S
O1020      H1049   0.990       .  S
Zr1021     O1024   2.434   1_455  S
Zr1021     O1025   2.438       .  S
Zr1021     O1026   2.415       .  S
O1022      C1027   1.275       .  A
O1023      H1040   0.990       .  S
O1023      H1055   0.990       .  S
O1024      H1041   0.989       .  S
O1025      H1045   0.990       .  S
O1025      H1054   0.990       .  S
O1026      C1027   1.283       .  A
C1027      C2727   1.462   1_455  S
O1028      H1047   0.990       .  S
O1028      H1051   0.989       .  S
O1029      H1043   0.990       .  S
O1029      H1050   0.990       .  S
O1030      C1034   1.274       .  A
O1031      C1034   1.278       .  A
O1032      H1042   0.990       .  S
O1033      H1046   0.990       .  S
C1034      C2534   1.427       .  S
Zr1057     O1058   2.437       .  S
Zr1057     O1059   2.448       .  S
Zr1057     O1060   2.617       .  S
Zr1057     O1063   2.547       .  S
Zr1057     O1065   2.393       .  S
Zr1057     O1066   2.432       .  S
Zr1057     O1067   2.412       .  S
Zr1057     O1068   2.408       .  S
O1058      H1114   0.990       .  S
O1058      H1122   0.990       .  S
O1059      C1079   1.286       .  A
O1060      C1081   1.320       .  A
O1061     Zr1071   2.404       .  S
O1061      C1080   1.281       .  A
O1062     Zr1070   2.397       .  S
O1062      C1081   1.273       .  A
O1063      C1080   1.310       .  A
O1064     Zr1072   2.442       .  S
O1064      C1079   1.287       .  A
O1065     Zr1070   2.405       .  S
O1065     Zr1072   2.384       .  S
O1066     Zr1071   2.399       .  S
O1066     Zr1072   2.374       .  S
O1066      H1101   0.963       .  S
O1067     Zr1070   2.411       .  S
O1067     Zr1087   2.414       .  S
O1067      H1104   0.965       .  S
O1068     Zr1071   2.423       .  S
O1068     Zr1087   2.320       .  S
Zr1069     O1094   2.446       .  S
Zr1069     O1088   2.425       .  S
Zr1069     O1096   2.412       .  S
Zr1069     O1084   2.390       .  S
Zr1069     O1075   2.398       .  S
Zr1069     O1076   2.407       .  S
Zr1069     O1077   2.373       .  S
Zr1069     O1078   2.382       .  S
Zr1070     O1089   2.446       .  S
Zr1070     O1082   2.436       .  S
Zr1070     O1083   2.454       .  S
Zr1070     O1076   2.395       .  S
Zr1070     O1077   2.358       .  S
Zr1071     O1073   2.436       .  S
Zr1071     O1095   2.436       .  S
Zr1071     O1097   2.520       .  S
Zr1071     O1075   2.374       .  S
Zr1071     O1078   2.354       .  S
Zr1072     O1098   2.437       .  S
Zr1072     O1099   2.436       .  S
Zr1072     O1074   2.438       .  S
Zr1072     O1075   2.412       .  S
Zr1072     O1076   2.406       .  S
O1073      H1110   0.990       .  S
O1074      H1105   0.990   1_565  S
O1074      H1119   0.990       .  S
O1076      H1102   0.966       .  S
O1077     Zr1087   2.375       .  S
O1078     Zr1087   2.388       .  S
O1078      H1103   0.964       .  S
C1079      C2974   1.480       .  S
C1080      C2877   1.511       .  S
C1081      C2424   1.554       .  S
O1082      H1118   0.990       .  S
O1083      C1085   1.284       .  A
O1084      C1085   1.273       .  A
C1085      C2397   1.481       .  S
O1086     Zr1087   2.437       .  S
O1086      H1115   0.991       .  S
Zr1087     O1090   2.440       .  S
Zr1087     O1091   2.432       .  S
Zr1087     O1092   2.379       .  S
O1088      C1093   1.273       .  A
O1089      H1106   0.990       .  S
O1089      H1121   0.991       .  S
O1090      H1107   0.990       .  S
O1091      H1111   0.990       .  S
O1091      H1120   0.990       .  S
O1092      C1093   1.259       .  A
C1093      C2417   1.436       .  S
O1094      H1113   0.990       .  S
O1094      H1117   0.988       .  S
O1095      H1109   0.990       .  S
O1095      H1116   0.990       .  S
O1096      C1100   1.281       .  A
O1097      C1100   1.300       .  A
O1098      H1108   0.990       .  S
O1099      H1112   0.991       .  S
C1100      C2404   1.503       .  S
Zr1123     O1124   2.437   1_545  S
Zr1123     O1125   2.478       .  S
Zr1123     O1126   2.612   1_545  S
Zr1123     O1129   2.533       .  S
Zr1123     O1131   2.396       .  S
Zr1123     O1132   2.430       .  S
Zr1123     O1133   2.411       .  S
Zr1123     O1134   2.433       .  S
O1124      H1180   0.990       .  S
O1124      H1188   0.990       .  S
O1125      C1145   1.292       .  A
O1126      C1147   1.319       .  A
O1127     Zr1137   2.398       .  S
O1127      C1146   1.267       .  A
O1128     Zr1136   2.408       .  S
O1128      C1147   1.278   1_545  A
O1129      C1146   1.301       .  A
O1130     Zr1138   2.427       .  S
O1130      C1145   1.282       .  A
O1131     Zr1136   2.404       .  S
O1131     Zr1138   2.388       .  S
O1132     Zr1137   2.418       .  S
O1132     Zr1138   2.360       .  S
O1132      H1167   0.963       .  S
O1133     Zr1136   2.418       .  S
O1133     Zr1153   2.405       .  S
O1133      H1170   0.965       .  S
O1134     Zr1137   2.441       .  S
O1134     Zr1153   2.351       .  S
Zr1135     O1160   2.439       .  S
Zr1135     O1154   2.436       .  S
Zr1135     O1162   2.418       .  S
Zr1135     O1150   2.399       .  S
Zr1135     O1141   2.395       .  S
Zr1135     O1142   2.419       .  S
Zr1135     O1143   2.398       .  S
Zr1135     O1144   2.390       .  S
Zr1136     O1155   2.443       .  S
Zr1136     O1148   2.433       .  S
Zr1136     O1149   2.459       .  S
Zr1136     O1142   2.401       .  S
Zr1136     O1143   2.348       .  S
Zr1137     O1139   2.434       .  S
Zr1137     O1161   2.437       .  S
Zr1137     O1163   2.519       .  S
Zr1137     O1141   2.380       .  S
Zr1137     O1144   2.359       .  S
Zr1138     O1164   2.437       .  S
Zr1138     O1165   2.435       .  S
Zr1138     O1140   2.437       .  S
Zr1138     O1141   2.416       .  S
Zr1138     O1142   2.405       .  S
O1139      H1176   0.990       .  S
O1140      H1171   0.990       .  S
O1140      H1185   0.990       .  S
O1142      H1168   0.965       .  S
O1143     Zr1153   2.362       .  S
O1144     Zr1153   2.392       .  S
O1144      H1169   0.968       .  S
C1145      C2497   1.488       .  S
C1146      C2597   1.512       .  S
C1147      C2427   1.553       .  S
O1148      H1184   0.990       .  S
O1149      C1151   1.288       .  A
O1150      C1151   1.276       .  A
C1151      C2384   1.489       .  S
O1152     Zr1153   2.438       .  S
O1152      H1181   0.990   1_545  S
Zr1153     O1156   2.441       .  S
Zr1153     O1157   2.444       .  S
Zr1153     O1158   2.381       .  S
O1154      C1159   1.269       .  A
O1155      H1172   0.990       .  S
O1155      H1187   0.991       .  S
O1156      H1173   0.990   1_455  S
O1157      H1177   0.989   1_455  S
O1157      H1186   0.991   1_455  S
O1158      C1159   1.266       .  A
C1159      C2374   1.467       .  S
O1160      H1179   0.990       .  S
O1160      H1183   0.990       .  S
O1161      H1175   0.990   1_556  S
O1161      H1182   0.990       .  S
O1162      C1166   1.281       .  A
O1163      C1166   1.301       .  A
O1164      H1174   0.990       .  S
O1165      H1178   0.991       .  S
C1166      C2367   1.515       .  S
Zr1189     O1190   2.435       .  S
Zr1189     O1191   2.451       .  S
Zr1189     O1192   2.608       .  S
Zr1189     O1195   2.526       .  S
Zr1189     O1197   2.381       .  S
Zr1189     O1198   2.428       .  S
Zr1189     O1199   2.407       .  S
Zr1189     O1200   2.410       .  S
O1190      H1246   0.990       .  S
O1190      H1254   0.990       .  S
O1191      C1211   1.287       .  A
O1192      C1213   1.320       .  A
O1193     Zr1203   2.401       .  S
O1193      C1212   1.270       .  A
O1194     Zr1202   2.360       .  S
O1194      C1213   1.269       .  A
O1195      C1212   1.301       .  A
O1196     Zr1204   2.454       .  S
O1196      C1211   1.289       .  A
O1197     Zr1202   2.397       .  S
O1197     Zr1204   2.374       .  S
O1198     Zr1203   2.404       .  S
O1198     Zr1204   2.359       .  S
O1198      H1233   0.963       .  S
O1199     Zr1202   2.407       .  S
O1199     Zr1219   2.404       .  S
O1199      H1236   0.964       .  S
O1200     Zr1203   2.420       .  S
O1200     Zr1219   2.335       .  S
Zr1201     O1226   2.439       .  S
Zr1201     O1220   2.454       .  S
Zr1201     O1228   2.401       .  S
Zr1201     O1216   2.401       .  S
Zr1201     O1207   2.401       .  S
Zr1201     O1208   2.405       .  S
Zr1201     O1209   2.372       .  S
Zr1201     O1210   2.375       .  S
Zr1202     O1221   2.443       .  S
Zr1202     O1214   2.433       .  S
Zr1202     O1215   2.417       .  S
Zr1202     O1208   2.381       .  S
Zr1202     O1209   2.359       .  S
Zr1203     O1205   2.433       .  S
Zr1203     O1227   2.437       .  S
Zr1203     O1229   2.506       .  S
Zr1203     O1207   2.372       .  S
Zr1203     O1210   2.353       .  S
Zr1204     O1230   2.435       .  S
Zr1204     O1231   2.436       .  S
Zr1204     O1206   2.442       .  S
Zr1204     O1207   2.419       .  S
Zr1204     O1208   2.414       .  S
O1205      H1242   0.990       .  S
O1206      H1237   0.990       .  S
O1206      H1251   0.990       .  S
O1208      H1234   0.963       .  S
O1209     Zr1219   2.374       .  S
O1210     Zr1219   2.398       .  S
O1210      H1235   0.967       .  S
C1211      C2764   1.485       .  S
C1212      C2807   1.517       .  S
C1213      C2354   1.536       .  S
O1214      H1250   0.989       .  S
O1215      C1217   1.280       .  A
O1216      C1217   1.275       .  A
C1217      C2334   1.478       .  S
O1218     Zr1219   2.436       .  S
O1218      H1247   0.990       .  S
Zr1219     O1222   2.432       .  S
Zr1219     O1223   2.435       .  S
Zr1219     O1224   2.382       .  S
O1220      C1225   1.284       .  A
O1221      H1238   0.990       .  S
O1221      H1253   0.990       .  S
O1222      H1239   0.991       .  S
O1223      H1243   0.990       .  S
O1223      H1252   0.990       .  S
O1224      C1225   1.267       .  A
C1225      C2344   1.455       .  S
O1226      H1245   0.991       .  S
O1226      H1249   0.989       .  S
O1227      H1241   0.990       .  S
O1227      H1248   0.989       .  S
O1228      C1232   1.278       .  A
O1229      C1232   1.298       .  A
O1230      H1240   0.990       .  S
O1231      H1244   0.990       .  S
C1232      C2407   1.497       .  S
Zr1255     O1256   2.436       .  S
Zr1255     O1257   2.457       .  S
Zr1255     O1258   2.599       .  S
Zr1255     O1261   2.503       .  S
Zr1255     O1263   2.384       .  S
Zr1255     O1264   2.431       .  S
Zr1255     O1265   2.403       .  S
Zr1255     O1266   2.419       .  S
O1256      H1312   0.990       .  S
O1256      H1320   0.990       .  S
O1257      C1277   1.288       .  A
O1258      C1279   1.316       .  A
O1259     Zr1269   2.419       .  S
O1259      C1278   1.275       .  A
O1260     Zr1268   2.372       .  S
O1260      C1279   1.271       .  A
O1261      C1278   1.297       .  A
O1262     Zr1270   2.435       .  S
O1262      C1277   1.284       .  A
O1263     Zr1268   2.405       .  S
O1263     Zr1270   2.384       .  S
O1264     Zr1269   2.423       .  S
O1264     Zr1270   2.363       .  S
O1264      H1299   0.965       .  S
O1265     Zr1268   2.405       .  S
O1265     Zr1285   2.404       .  S
O1265      H1302   0.966       .  S
O1266     Zr1269   2.429       .  S
O1266     Zr1285   2.336       .  S
Zr1267     O1292   2.438       .  S
Zr1267     O1286   2.429       .  S
Zr1267     O1294   2.406       .  S
Zr1267     O1282   2.395       .  S
Zr1267     O1273   2.390       .  S
Zr1267     O1274   2.401       .  S
Zr1267     O1275   2.374       .  S
Zr1267     O1276   2.375       .  S
Zr1268     O1287   2.445       .  S
Zr1268     O1280   2.436       .  S
Zr1268     O1281   2.424       .  S
Zr1268     O1274   2.385       .  S
Zr1268     O1275   2.363       .  S
Zr1269     O1271   2.439       .  S
Zr1269     O1293   2.436       .  S
Zr1269     O1295   2.549       .  S
Zr1269     O1273   2.373       .  S
Zr1269     O1276   2.353       .  S
Zr1270     O1296   2.434       .  S
Zr1270     O1297   2.433       .  S
Zr1270     O1272   2.440       .  S
Zr1270     O1273   2.410       .  S
Zr1270     O1274   2.400       .  S
O1271      H1308   0.990   1_655  S
O1272      H1303   0.990       .  S
O1272      H1317   0.990       .  S
O1274      H1300   0.967       .  S
O1275     Zr1285   2.371       .  S
O1276     Zr1285   2.400       .  S
O1276      H1301   0.964       .  S
C1277      C2654   1.483       .  S
C1278      C2437   1.505       .  S
C1279      C2357   1.528       .  S
O1280      H1316   0.990       .  S
O1281      C1283   1.281       .  A
O1282      C1283   1.275       .  A
C1283      C2314   1.477       .  S
O1284     Zr1285   2.439       .  S
O1284      H1313   0.990       .  S
Zr1285     O1288   2.434       .  S
Zr1285     O1289   2.435   1_655  S
Zr1285     O1290   2.380   1_655  S
O1286      C1291   1.279   1_655  A
O1287      H1304   0.989       .  S
O1287      H1319   0.992       .  S
O1288      H1305   0.990   1_655  S
O1289      H1309   0.990       .  S
O1289      H1318   0.990       .  S
O1290      C1291   1.268       .  A
C1291      C2324   1.445       .  S
O1292      H1311   0.990       .  S
O1292      H1315   0.988       .  S
O1293      H1307   0.990   1_556  S
O1293      H1314   0.990   1_556  S
O1294      C1298   1.279       .  A
O1295      C1298   1.306       .  A
O1296      H1306   0.990       .  S
O1297      H1310   0.990       .  S
C1298      C2364   1.520   1_655  S
Zr1321     O1322   2.437       .  S
Zr1321     O1323   2.460       .  S
Zr1321     O1324   2.501       .  S
Zr1321     O1327   2.583       .  S
Zr1321     O1329   2.424       .  S
Zr1321     O1330   2.398       .  S
Zr1321     O1331   2.453       .  S
Zr1321     O1332   2.401       .  S
O1322      H1378   0.990       .  S
O1322      H1386   0.990       .  S
O1323      C1343   1.288       .  A
O1324      C1345   1.292       .  A
O1325     Zr1335   2.395       .  S
O1325      C1344   1.276       .  A
O1326     Zr1334   2.410       .  S
O1326      C1345   1.272       .  A
O1327      C1344   1.314       .  A
O1328     Zr1336   2.414       .  S
O1328      C1343   1.280       .  A
O1329     Zr1334   2.425       .  S
O1329     Zr1336   2.363       .  S
O1330     Zr1335   2.395       .  S
O1330     Zr1336   2.392       .  S
O1330      H1365   0.969       .  S
O1331     Zr1334   2.442       .  S
O1331     Zr1351   2.350       .  S
O1331      H1368   0.965       .  S
O1332     Zr1335   2.406       .  S
O1332     Zr1351   2.392       .  S
Zr1333     O1358   2.439       .  S
Zr1333     O1352   2.408       .  S
Zr1333     O1360   2.365       .  S
Zr1333     O1348   2.423       .  S
Zr1333     O1339   2.407       .  S
Zr1333     O1340   2.383       .  S
Zr1333     O1341   2.359       .  S
Zr1333     O1342   2.389       .  S
Zr1334     O1353   2.435       .  S
Zr1334     O1346   2.435       .  S
Zr1334     O1347   2.522       .  S
Zr1334     O1340   2.379       .  S
Zr1334     O1341   2.366       .  S
Zr1335     O1337   2.438       .  S
Zr1335     O1359   2.437       .  S
Zr1335     O1361   2.425       .  S
Zr1335     O1339   2.390       .  S
Zr1335     O1342   2.392       .  S
Zr1336     O1362   2.437       .  S
Zr1336     O1363   2.436       .  S
Zr1336     O1338   2.440       .  S
Zr1336     O1339   2.398       .  S
Zr1336     O1340   2.407       .  S
O1337      H1374   0.991       .  S
O1338      H1369   0.990       .  S
O1338      H1383   0.989       .  S
O1340      H1366   0.968       .  S
O1341     Zr1351   2.386       .  S
O1342     Zr1351   2.349       .  S
O1342      H1367   0.966       .  S
C1343      C2817   1.481       .  S
C1344      C2307   1.539       .  S
C1345      C2757   1.509       .  S
O1346      H1382   0.990       .  S
O1347      C1349   1.301       .  A
O1348      C1349   1.280       .  A
C1349      C2294   1.523       .  S
O1350     Zr1351   2.435       .  S
O1350      H1379   0.990       .  S
Zr1351     O1354   2.436       .  S
Zr1351     O1355   2.440       .  S
Zr1351     O1356   2.385       .  S
O1352      C1357   1.277       .  A
O1353      H1370   0.989       .  S
O1353      H1385   0.989       .  S
O1354      H1371   0.990       .  S
O1355      H1375   0.990       .  S
O1355      H1384   0.989       .  S
O1356      C1357   1.276       .  A
C1357      C2317   1.455       .  S
O1358      H1377   0.991       .  S
O1358      H1381   0.990       .  S
O1359      H1373   0.990       .  S
O1359      H1380   0.991       .  S
O1360      C1364   1.275       .  A
O1361      C1364   1.279       .  A
O1362      H1372   0.990       .  S
O1363      H1376   0.990       .  S
C1364      C2377   1.439       .  S
Zr1387     O1388   2.438       .  S
Zr1387     O1389   2.453       .  S
Zr1387     O1390   2.515       .  S
Zr1387     O1393   2.606       .  S
Zr1387     O1395   2.435   1_545  S
Zr1387     O1396   2.410   1_545  S
Zr1387     O1397   2.461   1_545  S
Zr1387     O1398   2.394   1_545  S
O1388      H1444   0.990       .  S
O1388      H1452   0.990       .  S
O1389      C1409   1.285       .  A
O1390      C1411   1.292       .  A
O1391     Zr1401   2.393       .  S
O1391      C1410   1.274   1_565  A
O1392     Zr1400   2.398       .  S
O1392      C1411   1.268   1_565  A
O1393      C1410   1.319       .  A
O1394     Zr1402   2.416       .  S
O1394      C1409   1.280   1_565  A
O1395     Zr1400   2.429       .  S
O1395     Zr1402   2.360       .  S
O1396     Zr1401   2.403       .  S
O1396     Zr1402   2.400       .  S
O1396      H1431   0.968       .  S
O1397     Zr1400   2.449       .  S
O1397     Zr1417   2.353       .  S
O1397      H1434   0.956       .  S
O1398     Zr1401   2.406       .  S
O1398     Zr1417   2.388       .  S
Zr1399     O1424   2.436       .  S
Zr1399     O1418   2.426       .  S
Zr1399     O1426   2.385       .  S
Zr1399     O1414   2.423       .  S
Zr1399     O1405   2.414       .  S
Zr1399     O1406   2.391       .  S
Zr1399     O1407   2.367       .  S
Zr1399     O1408   2.387       .  S
Zr1400     O1419   2.433       .  S
Zr1400     O1412   2.433       .  S
Zr1400     O1413   2.537       .  S
Zr1400     O1406   2.376       .  S
Zr1400     O1407   2.352       .  S
Zr1401     O1403   2.437       .  S
Zr1401     O1425   2.440       .  S
Zr1401     O1427   2.425       .  S
Zr1401     O1405   2.389       .  S
Zr1401     O1408   2.387       .  S
Zr1402     O1428   2.439       .  S
Zr1402     O1429   2.436       .  S
Zr1402     O1404   2.439       .  S
Zr1402     O1405   2.406       .  S
Zr1402     O1406   2.409       .  S
O1403      H1440   0.990       .  S
O1404      H1435   0.991       .  S
O1404      H1449   0.990       .  S
O1406      H1432   0.965       .  S
O1407     Zr1417   2.383       .  S
O1408     Zr1417   2.347       .  S
O1408      H1433   0.962       .  S
C1409      C2607   1.477       .  S
C1410      C2304   1.546       .  S
C1411      C2484   1.516       .  S
O1412      H1448   0.990       .  S
O1413      C1415   1.304       .  A
O1414      C1415   1.283       .  A
C1415      C2284   1.532       .  S
O1416     Zr1417   2.433   1_545  S
O1416      H1445   0.990       .  S
Zr1417     O1420   2.434       .  S
Zr1417     O1421   2.439       .  S
Zr1417     O1422   2.387       .  S
O1418      C1423   1.283       .  A
O1419      H1436   0.990       .  S
O1419      H1451   0.990       .  S
O1420      H1437   0.989       .  S
O1421      H1441   0.990       .  S
O1421      H1450   0.990       .  S
O1422      C1423   1.277       .  A
C1423      C2394   1.462       .  S
O1424      H1443   0.989       .  S
O1424      H1447   0.990       .  S
O1425      H1439   0.990       .  S
O1425      H1446   0.988       .  S
O1426      C1430   1.279       .  A
O1427      C1430   1.279       .  A
O1428      H1438   0.990       .  S
O1429      H1442   0.990       .  S
C1430      C2347   1.449       .  S
Zr1453     O1454   2.438       .  S
Zr1453     O1455   2.476       .  S
Zr1453     O1456   2.509       .  S
Zr1453     O1459   2.628       .  S
Zr1453     O1461   2.433       .  S
Zr1453     O1462   2.401       .  S
Zr1453     O1463   2.460       .  S
Zr1453     O1464   2.393       .  S
O1454      H1510   0.990       .  S
O1454      H1518   0.990       .  S
O1455      C1475   1.290       .  A
O1456      C1477   1.295       .  A
O1457     Zr1467   2.396       .  S
O1457      C1476   1.275       .  A
O1458     Zr1466   2.410       .  S
O1458      C1477   1.273       .  A
O1459      C1476   1.325       .  A
O1460     Zr1468   2.412       .  S
O1460      C1475   1.279       .  A
O1461     Zr1466   2.434       .  S
O1461     Zr1468   2.362       .  S
O1462     Zr1467   2.402       .  S
O1462     Zr1468   2.398       .  S
O1462      H1497   0.964       .  S
O1463     Zr1466   2.449       .  S
O1463     Zr1483   2.351       .  S
O1463      H1500   0.960       .  S
O1464     Zr1467   2.403       .  S
O1464     Zr1483   2.382       .  S
Zr1465     O1490   2.436       .  S
Zr1465     O1484   2.426       .  S
Zr1465     O1492   2.369       .  S
Zr1465     O1480   2.392       .  S
Zr1465     O1471   2.402       .  S
Zr1465     O1472   2.387       .  S
Zr1465     O1473   2.361       .  S
Zr1465     O1474   2.388       .  S
Zr1466     O1485   2.437       .  S
Zr1466     O1478   2.434       .  S
Zr1466     O1479   2.562       .  S
Zr1466     O1472   2.371       .  S
Zr1466     O1473   2.343       .  S
Zr1467     O1469   2.439       .  S
Zr1467     O1491   2.435       .  S
Zr1467     O1493   2.429       .  S
Zr1467     O1471   2.378       .  S
Zr1467     O1474   2.391       .  S
Zr1468     O1494   2.437       .  S
Zr1468     O1495   2.434       .  S
Zr1468     O1470   2.436       .  S
Zr1468     O1471   2.401       .  S
Zr1468     O1472   2.408       .  S
O1469      H1506   0.990       .  S
O1470      H1501   0.990       .  S
O1470      H1515   0.991       .  S
O1472      H1498   0.964       .  S
O1473     Zr1483   2.386       .  S
O1474     Zr1483   2.355       .  S
O1474      H1499   0.965       .  S
C1475      C2887   1.490       .  S
C1476      C2274   1.560       .  S
C1477      C2967   1.507       .  S
O1478      H1514   0.990       .  S
O1479      C1481   1.309       .  A
O1480      C1481   1.276       .  A
C1481      C2297   1.528       .  S
O1482     Zr1483   2.437       .  S
O1482      H1511   0.990       .  S
Zr1483     O1486   2.436       .  S
Zr1483     O1487   2.447       .  S
Zr1483     O1488   2.377       .  S
O1484      C1489   1.282       .  A
O1485      H1502   0.989       .  S
O1485      H1517   0.989       .  S
O1486      H1503   0.990       .  S
O1487      H1507   0.989       .  S
O1487      H1516   0.990       .  S
O1488      C1489   1.275       .  A
C1489      C2387   1.461       .  S
O1490      H1509   0.990       .  S
O1490      H1513   0.990       .  S
O1491      H1505   0.989       .  S
O1491      H1512   0.991       .  S
O1492      C1496   1.275       .  A
O1493      C1496   1.281       .  A
O1494      H1504   0.991       .  S
O1495      H1508   0.990       .  S
C1496      C2327   1.442       .  S
Zr1519     O1520   2.438       .  S
Zr1519     O1521   2.477       .  S
Zr1519     O1522   2.494       .  S
Zr1519     O1525   2.616       .  S
Zr1519     O1527   2.433       .  S
Zr1519     O1528   2.396       .  S
Zr1519     O1529   2.470       .  S
Zr1519     O1530   2.397       .  S
O1520      H1576   0.990       .  S
O1520      H1584   0.990       .  S
O1521      C1541   1.291       .  A
O1522      C1543   1.290       .  A
O1523     Zr1533   2.387       .  S
O1523      C1542   1.272       .  A
O1524     Zr1532   2.405       .  S
O1524      C1543   1.271       .  A
O1525      C1542   1.322       .  A
O1526     Zr1534   2.406       .  S
O1526      C1541   1.278       .  A
O1527     Zr1532   2.428       .  S
O1527     Zr1534   2.363       .  S
O1528     Zr1533   2.393       .  S
O1528     Zr1534   2.398       .  S
O1528      H1563   0.965       .  S
O1529     Zr1532   2.444       .  S
O1529     Zr1549   2.344       .  S
O1529      H1566   0.962       .  S
O1530     Zr1533   2.399       .  S
O1530     Zr1549   2.391       .  S
Zr1531     O1556   2.438       .  S
Zr1531     O1550   2.413       .  S
Zr1531     O1558   2.372       .  S
Zr1531     O1546   2.412       .  S
Zr1531     O1537   2.403       .  S
Zr1531     O1538   2.383       .  S
Zr1531     O1539   2.369       .  S
Zr1531     O1540   2.392       .  S
Zr1532     O1551   2.436       .  S
Zr1532     O1544   2.434       .  S
Zr1532     O1545   2.549       .  S
Zr1532     O1538   2.372       .  S
Zr1532     O1539   2.353       .  S
Zr1533     O1535   2.440       .  S
Zr1533     O1557   2.431       .  S
Zr1533     O1559   2.408       .  S
Zr1533     O1537   2.383       .  S
Zr1533     O1540   2.391       .  S
Zr1534     O1560   2.435       .  S
Zr1534     O1561   2.436       .  S
Zr1534     O1536   2.438       .  S
Zr1534     O1537   2.395       .  S
Zr1534     O1538   2.406       .  S
O1535      H1572   0.991       .  S
O1536      H1567   0.991       .  S
O1536      H1581   0.989       .  S
O1538      H1564   0.966       .  S
O1539     Zr1549   2.389       .  S
O1540     Zr1549   2.348       .  S
O1540      H1565   0.963       .  S
C1541      C2447   1.486       .  S
C1542      C2277   1.549       .  S
C1543      C2644   1.506       .  S
O1544      H1580   0.990   1_556  S
O1545      C1547   1.306       .  A
O1546      C1547   1.280       .  A
C1547      C2287   1.529       .  S
O1548     Zr1549   2.436       .  S
O1548      H1577   0.990       .  S
Zr1549     O1552   2.435       .  S
Zr1549     O1553   2.438       .  S
Zr1549     O1554   2.391       .  S
O1550      C1555   1.279       .  A
O1551      H1568   0.990       .  S
O1551      H1583   0.989       .  S
O1552      H1569   0.991       .  S
O1553      H1573   0.990       .  S
O1553      H1582   0.988       .  S
O1554      C1555   1.279       .  A
C1555      C2337   1.459       .  S
O1556      H1575   0.990       .  S
O1556      H1579   0.990       .  S
O1557      H1571   0.990       .  S
O1557      H1578   0.990       .  S
O1558      C1562   1.274       .  A
O1559      C1562   1.276       .  A
O1560      H1570   0.990       .  S
O1561      H1574   0.990       .  S
C1562      C2414   1.424       .  S
Zr1585     O1586   2.436       .  S
Zr1585     O1587   2.456       .  S
Zr1585     O1588   2.512       .  S
Zr1585     O1591   2.598       .  S
Zr1585     O1593   2.413       .  S
Zr1585     O1594   2.384       .  S
Zr1585     O1595   2.457       .  S
Zr1585     O1596   2.412       .  S
O1586      H1642   0.989       .  S
O1586      H1650   0.990       .  S
O1587      C1607   1.288       .  A
O1588      C1609   1.300       .  A
O1589     Zr1599   2.386       .  S
O1589      C1608   1.271       .  A
O1590     Zr1598   2.428       .  S
O1590      C1609   1.279       .  A
O1591      C1608   1.318       .  A
O1592     Zr1600   2.450       .  S
O1592      C1607   1.287       .  A
O1593     Zr1598   2.424       .  S
O1593     Zr1600   2.365       .  S
O1594     Zr1599   2.405       .  S
O1594     Zr1600   2.377       .  S
O1594      H1629   0.959       .  S
O1595     Zr1598   2.432       .  S
O1595     Zr1615   2.349       .  S
O1595      H1632   0.965       .  S
O1596     Zr1599   2.388       .  S
O1596     Zr1615   2.406       .  S
Zr1597     O1622   2.436       .  S
Zr1597     O1616   2.419       .  S
Zr1597     O1624   2.415       .  S
Zr1597     O1612   2.415       .  S
Zr1597     O1603   2.402       .  S
Zr1597     O1604   2.399       .  S
Zr1597     O1605   2.361       .  S
Zr1597     O1606   2.386       .  S
Zr1598     O1617   2.436       .  S
Zr1598     O1610   2.434       .  S
Zr1598     O1611   2.542       .  S
Zr1598     O1604   2.384       .  S
Zr1598     O1605   2.348       .  S
Zr1599     O1601   2.436       .  S
Zr1599     O1623   2.438       .  S
Zr1599     O1625   2.406       .  S
Zr1599     O1603   2.395       .  S
Zr1599     O1606   2.376       .  S
Zr1600     O1626   2.437       .  S
Zr1600     O1627   2.436       .  S
Zr1600     O1602   2.437       .  S
Zr1600     O1603   2.413       .  S
Zr1600     O1604   2.407       .  S
O1601      H1638   0.990       .  S
O1602      H1633   0.991       .  S
O1602      H1647   0.990       .  S
O1604      H1630   0.967       .  S
O1605     Zr1615   2.373       .  S
O1606     Zr1615   2.347       .  S
O1606      H1631   0.965       .  S
C1607      C2924   1.497       .  S
C1608      C2267   1.532       .  S
C1609      C2774   1.513       .  S
O1610      H1646   0.990       .  S
O1611      C1613   1.306       .  A
O1612      C1613   1.282       .  A
C1613      C2234   1.528       .  S
O1614     Zr1615   2.436       .  S
O1614      H1643   0.990       .  S
Zr1615     O1618   2.436       .  S
Zr1615     O1619   2.443       .  S
Zr1615     O1620   2.411       .  S
O1616      C1621   1.282       .  A
O1617      H1634   0.990       .  S
O1617      H1649   0.990       .  S
O1618      H1635   0.991   1_455  S
O1619      H1639   0.990       .  S
O1619      H1648   0.990       .  S
O1620      C1621   1.281       .  A
C1621      C2257   1.476   1_455  S
O1622      H1641   0.989       .  S
O1622      H1645   0.990       .  S
O1623      H1637   0.990       .  S
O1623      H1644   0.989       .  S
O1624      C1628   1.283       .  A
O1625      C1628   1.277       .  A
O1626      H1636   0.990       .  S
O1627      H1640   0.990       .  S
C1628      C2244   1.467       .  S
Zr1651     O1652   2.439       .  S
Zr1651     O1653   2.487       .  S
Zr1651     O1654   2.502       .  S
Zr1651     O1657   2.592       .  S
Zr1651     O1659   2.422       .  S
Zr1651     O1660   2.397       .  S
Zr1651     O1661   2.463       .  S
Zr1651     O1662   2.411       .  S
O1652      H1708   0.990       .  S
O1652      H1716   0.990       .  S
O1653      C1673   1.293       .  A
O1654      C1675   1.295       .  A
O1655     Zr1665   2.389       .  S
O1655      C1674   1.276       .  A
O1656     Zr1664   2.418       .  S
O1656      C1675   1.276       .  A
O1657      C1674   1.315       .  A
O1658     Zr1666   2.401       .  S
O1658      C1673   1.277       .  A
O1659     Zr1664   2.429       .  S
O1659     Zr1666   2.376       .  S
O1660     Zr1665   2.399       .  S
O1660     Zr1666   2.391       .  S
O1660      H1695   0.965       .  S
O1661     Zr1664   2.435       .  S
O1661     Zr1681   2.347       .  S
O1661      H1698   0.958       .  S
O1662     Zr1665   2.397       .  S
O1662     Zr1681   2.395       .  S
Zr1663     O1688   2.437       .  S
Zr1663     O1682   2.398       .  S
Zr1663     O1690   2.368       .  S
Zr1663     O1678   2.409       .  S
Zr1663     O1669   2.389       .  S
Zr1663     O1670   2.379       .  S
Zr1663     O1671   2.362       .  S
Zr1663     O1672   2.391       .  S
Zr1664     O1683   2.436       .  S
Zr1664     O1676   2.434       .  S
Zr1664     O1677   2.539       .  S
Zr1664     O1670   2.378       .  S
Zr1664     O1671   2.355       .  S
Zr1665     O1667   2.436       .  S
Zr1665     O1689   2.437       .  S
Zr1665     O1691   2.421       .  S
Zr1665     O1669   2.383       .  S
Zr1665     O1672   2.381       .  S
Zr1666     O1692   2.438       .  S
Zr1666     O1693   2.437       .  S
Zr1666     O1668   2.437       .  S
Zr1666     O1669   2.385       .  S
Zr1666     O1670   2.405       .  S
O1667      H1704   0.991       .  S
O1668      H1699   0.990       .  S
O1668      H1713   0.989       .  S
O1670      H1696   0.965       .  S
O1671     Zr1681   2.380       .  S
O1672     Zr1681   2.338       .  S
O1672      H1697   0.963       .  S
C1673      C2467   1.486       .  S
C1674      C2264   1.547       .  S
C1675      C2517   1.511       .  S
O1676      H1712   0.990       .  S
O1677      C1679   1.305       .  A
O1678      C1679   1.279       .  A
C1679      C2204   1.523       .  S
O1680     Zr1681   2.434       .  S
O1680      H1709   0.990       .  S
Zr1681     O1684   2.431       .  S
Zr1681     O1685   2.436       .  S
Zr1681     O1686   2.407       .  S
O1682      C1687   1.277       .  A
O1683      H1700   0.990       .  S
O1683      H1715   0.989       .  S
O1684      H1701   0.990       .  S
O1685      H1705   0.990       .  S
O1685      H1714   0.990       .  S
O1686      C1687   1.282       .  A
C1687      C2214   1.459       .  S
O1688      H1707   0.990       .  S
O1688      H1711   0.990       .  S
O1689      H1703   0.990       .  S
O1689      H1710   0.990       .  S
O1690      C1694   1.276       .  A
O1691      C1694   1.280       .  A
O1692      H1702   0.989       .  S
O1693      H1706   0.990       .  S
C1694      C2224   1.438       .  S
Zr1717     O1718   2.439   1_545  S
Zr1717     O1719   2.490       .  S
Zr1717     O1720   2.503   1_545  S
Zr1717     O1723   2.602   1_545  S
Zr1717     O1725   2.426       .  S
Zr1717     O1726   2.402       .  S
Zr1717     O1727   2.457       .  S
Zr1717     O1728   2.392       .  S
O1718      H1774   0.990       .  S
O1718      H1782   0.990       .  S
O1719      C1739   1.294       .  A
O1720      C1741   1.292   1_565  A
O1721     Zr1731   2.388       .  S
O1721      C1740   1.273   1_545  A
O1722     Zr1730   2.398       .  S
O1722      C1741   1.270       .  A
O1723      C1740   1.318       .  A
O1724     Zr1732   2.398       .  S
O1724      C1739   1.277       .  A
O1725     Zr1730   2.421       .  S
O1725     Zr1732   2.364       .  S
O1726     Zr1731   2.390       .  S
O1726     Zr1732   2.401       .  S
O1726      H1761   0.966       .  S
O1727     Zr1730   2.435       .  S
O1727     Zr1747   2.368       .  S
O1727      H1764   0.949       .  S
O1728     Zr1731   2.387       .  S
O1728     Zr1747   2.387       .  S
Zr1729     O1754   2.437       .  S
Zr1729     O1748   2.404       .  S
Zr1729     O1756   2.390       .  S
Zr1729     O1744   2.441       .  S
Zr1729     O1735   2.402       .  S
Zr1729     O1736   2.388       .  S
Zr1729     O1737   2.361       .  S
Zr1729     O1738   2.397       .  S
Zr1730     O1749   2.435   1_655  S
Zr1730     O1742   2.432       .  S
Zr1730     O1743   2.526       .  S
Zr1730     O1736   2.384       .  S
Zr1730     O1737   2.350       .  S
Zr1731     O1733   2.442       .  S
Zr1731     O1755   2.437       .  S
Zr1731     O1757   2.404       .  S
Zr1731     O1735   2.381       .  S
Zr1731     O1738   2.397       .  S
Zr1732     O1758   2.438       .  S
Zr1732     O1759   2.434       .  S
Zr1732     O1734   2.438       .  S
Zr1732     O1735   2.392       .  S
Zr1732     O1736   2.402       .  S
O1733      H1770   0.991       .  S
O1734      H1765   0.990       .  S
O1734      H1779   0.990       .  S
O1736      H1762   0.965       .  S
O1737     Zr1747   2.376       .  S
O1738     Zr1747   2.353       .  S
O1738      H1763   0.966       .  S
C1739      C2847   1.487       .  S
C1740      C2197   1.532       .  S
C1741      C3017   1.509       .  S
O1742      H1778   0.990       .  S
O1743      C1745   1.302       .  A
O1744      C1745   1.285       .  A
C1745      C2237   1.526   1_655  S
O1746     Zr1747   2.437   1_565  S
O1746      H1775   0.990       .  S
Zr1747     O1750   2.433   1_655  S
Zr1747     O1751   2.442       .  S
Zr1747     O1752   2.422   1_655  S
O1748      C1753   1.278   1_655  A
O1749      H1766   0.990       .  S
O1749      H1781   0.990       .  S
O1750      H1767   0.990       .  S
O1751      H1771   0.990   1_655  S
O1751      H1780   0.989       .  S
O1752      C1753   1.283       .  A
C1753      C2187   1.466       .  S
O1754      H1773   0.990       .  S
O1754      H1777   0.990       .  S
O1755      H1769   0.990       .  S
O1755      H1776   0.990       .  S
O1756      C1760   1.280       .  A
O1757      C1760   1.276       .  A
O1758      H1768   0.990       .  S
O1759      H1772   0.990       .  S
C1760      C2177   1.432       .  S
Zr1783     O1784   2.438       .  S
Zr1783     O1785   2.464       .  S
Zr1783     O1786   2.500       .  S
Zr1783     O1789   2.580       .  S
Zr1783     O1791   2.430       .  S
Zr1783     O1792   2.405       .  S
Zr1783     O1793   2.460       .  S
Zr1783     O1794   2.390       .  S
O1784      H1840   0.990       .  S
O1784      H1848   0.991       .  S
O1785      C1805   1.289       .  A
O1786      C1807   1.289       .  A
O1787     Zr1797   2.385       .  S
O1787      C1806   1.273       .  A
O1788     Zr1796   2.399       .  S
O1788      C1807   1.269       .  A
O1789      C1806   1.314       .  A
O1790     Zr1798   2.412       .  S
O1790      C1805   1.279       .  A
O1791     Zr1796   2.429       .  S
O1791     Zr1798   2.368       .  S
O1792     Zr1797   2.392       .  S
O1792     Zr1798   2.393       .  S
O1792      H1827   0.970       .  S
O1793     Zr1796   2.443       .  S
O1793     Zr1813   2.356       .  S
O1793      H1830   0.963       .  S
O1794     Zr1797   2.394       .  S
O1794     Zr1813   2.375       .  S
Zr1795     O1820   2.435       .  S
Zr1795     O1814   2.419       .  S
Zr1795     O1822   2.378       .  S
Zr1795     O1810   2.416       .  S
Zr1795     O1801   2.404       .  S
Zr1795     O1802   2.391       .  S
Zr1795     O1803   2.364       .  S
Zr1795     O1804   2.391       .  S
Zr1796     O1815   2.436       .  S
Zr1796     O1808   2.433       .  S
Zr1796     O1809   2.528       .  S
Zr1796     O1802   2.380       .  S
Zr1796     O1803   2.355       .  S
Zr1797     O1799   2.440       .  S
Zr1797     O1821   2.437       .  S
Zr1797     O1823   2.416       .  S
Zr1797     O1801   2.379       .  S
Zr1797     O1804   2.394       .  S
Zr1798     O1824   2.435       .  S
Zr1798     O1825   2.439       .  S
Zr1798     O1800   2.439       .  S
Zr1798     O1801   2.396       .  S
Zr1798     O1802   2.412       .  S
O1799      H1836   0.990       .  S
O1800      H1831   0.991       .  S
O1800      H1845   0.990       .  S
O1802      H1828   0.965       .  S
O1803     Zr1813   2.384       .  S
O1804     Zr1813   2.360       .  S
O1804      H1829   0.962       .  S
C1805      C2564   1.480       .  S
C1806      C2194   1.530       .  S
C1807      C2697   1.512       .  S
O1808      H1844   0.990       .  S
O1809      C1811   1.302       .  A
O1810      C1811   1.279       .  A
C1811      C2207   1.525       .  S
O1812     Zr1813   2.435       .  S
O1812      H1841   0.990       .  S
Zr1813     O1816   2.434       .  S
Zr1813     O1817   2.440       .  S
Zr1813     O1818   2.387       .  S
O1814      C1819   1.281       .  A
O1815      H1832   0.989       .  S
O1815      H1847   0.990       .  S
O1816      H1833   0.989       .  S
O1817      H1837   0.990       .  S
O1817      H1846   0.989       .  S
O1818      C1819   1.278       .  A
C1819      C2154   1.456       .  S
O1820      H1839   0.989       .  S
O1820      H1843   0.991       .  S
O1821      H1835   0.990       .  S
O1821      H1842   0.991       .  S
O1822      C1826   1.277       .  A
O1823      C1826   1.278       .  A
O1824      H1834   0.990   1_565  S
O1825      H1838   0.990       .  S
C1826      C2164   1.441       .  S
Zr1849     O1850   2.437   1_565  S
Zr1849     O1851   2.454       .  S
Zr1849     O1852   2.587   1_565  S
Zr1849     O1855   2.519   1_565  S
Zr1849     O1857   2.390       .  S
Zr1849     O1858   2.431       .  S
Zr1849     O1859   2.411       .  S
Zr1849     O1860   2.402       .  S
O1850      H1906   0.990       .  S
O1850      H1914   0.991       .  S
O1851      C1871   1.288       .  A
O1852      C1873   1.314       .  A
O1853     Zr1863   2.425       .  S
O1853      C1872   1.278       .  A
O1854     Zr1862   2.372       .  S
O1854      C1873   1.271   1_565  A
O1855      C1872   1.301   1_545  A
O1856     Zr1864   2.436       .  S
O1856      C1871   1.286       .  A
O1857     Zr1862   2.402       .  S
O1857     Zr1864   2.383       .  S
O1858     Zr1863   2.396       .  S
O1858     Zr1864   2.374       .  S
O1858      H1893   0.960       .  S
O1859     Zr1862   2.408       .  S
O1859     Zr1879   2.410       .  S
O1859      H1896   0.967       .  S
O1860     Zr1863   2.411       .  S
O1860     Zr1879   2.327       .  S
Zr1861     O1886   2.441       .  S
Zr1861     O1880   2.423       .  S
Zr1861     O1888   2.407       .  S
Zr1861     O1876   2.386       .  S
Zr1861     O1867   2.393       .  S
Zr1861     O1868   2.397       .  S
Zr1861     O1869   2.374       .  S
Zr1861     O1870   2.382       .  S
Zr1862     O1881   2.446       .  S
Zr1862     O1874   2.435       .  S
Zr1862     O1875   2.433       .  S
Zr1862     O1868   2.381       .  S
Zr1862     O1869   2.356       .  S
Zr1863     O1865   2.435       .  S
Zr1863     O1887   2.436       .  S
Zr1863     O1889   2.504       .  S
Zr1863     O1867   2.383       .  S
Zr1863     O1870   2.367       .  S
Zr1864     O1890   2.434       .  S
Zr1864     O1891   2.437       .  S
Zr1864     O1866   2.439       .  S
Zr1864     O1867   2.412       .  S
Zr1864     O1868   2.397       .  S
O1865      H1902   0.990       .  S
O1866      H1897   0.990       .  S
O1866      H1911   0.989       .  S
O1868      H1894   0.967       .  S
O1869     Zr1879   2.371       .  S
O1870     Zr1879   2.392       .  S
O1870      H1895   0.963       .  S
C1871      C3027   1.475       .  S
C1872      C2837   1.512   1_565  S
C1873      C2147   1.529       .  S
O1874      H1910   0.990       .  S
O1875      C1877   1.282       .  A
O1876      C1877   1.275       .  A
C1877      C2217   1.479       .  S
O1878     Zr1879   2.436   1_545  S
O1878      H1907   0.991       .  S
Zr1879     O1882   2.434       .  S
Zr1879     O1883   2.440       .  S
Zr1879     O1884   2.380       .  S
O1880      C1885   1.277       .  A
O1881      H1898   0.990       .  S
O1881      H1913   0.991       .  S
O1882      H1899   0.991       .  S
O1883      H1903   0.989       .  S
O1883      H1912   0.990       .  S
O1884      C1885   1.268       .  A
C1885      C2167   1.442       .  S
O1886      H1905   0.990       .  S
O1886      H1909   0.990       .  S
O1887      H1901   0.990       .  S
O1887      H1908   0.990       .  S
O1888      C1892   1.278       .  A
O1889      C1892   1.297       .  A
O1890      H1900   0.990       .  S
O1891      H1904   0.990       .  S
C1892      C2134   1.498       .  S
Zr1915     O1916   2.437       .  S
Zr1915     O1917   2.469       .  S
Zr1915     O1918   2.598       .  S
Zr1915     O1921   2.523       .  S
Zr1915     O1923   2.377       .  S
Zr1915     O1924   2.430       .  S
Zr1915     O1925   2.415       .  S
Zr1915     O1926   2.408       .  S
O1916      H1972   0.990       .  S
O1916      H1980   0.990       .  S
O1917      C1937   1.290       .  A
O1918      C1939   1.317       .  A
O1919     Zr1929   2.408       .  S
O1919      C1938   1.282       .  A
O1920     Zr1928   2.366       .  S
O1920      C1939   1.269       .  A
O1921      C1938   1.304       .  A
O1922     Zr1930   2.439       .  S
O1922      C1937   1.285       .  A
O1923     Zr1928   2.399       .  S
O1923     Zr1930   2.386       .  S
O1924     Zr1929   2.394       .  S
O1924     Zr1930   2.376       .  S
O1924      H1959   0.961       .  S
O1925     Zr1928   2.401       .  S
O1925     Zr1945   2.419       .  S
O1925      H1962   0.966       .  S
O1926     Zr1929   2.410       .  S
O1926     Zr1945   2.359       .  S
Zr1927     O1952   2.440       .  S
Zr1927     O1946   2.415       .  S
Zr1927     O1954   2.397       .  S
Zr1927     O1942   2.408       .  S
Zr1927     O1933   2.397       .  S
Zr1927     O1934   2.396       .  S
Zr1927     O1935   2.370       .  S
Zr1927     O1936   2.376       .  S
Zr1928     O1947   2.442       .  S
Zr1928     O1940   2.439       .  S
Zr1928     O1941   2.399       .  S
Zr1928     O1934   2.389       .  S
Zr1928     O1935   2.372       .  S
Zr1929     O1931   2.437       .  S
Zr1929     O1953   2.435       .  S
Zr1929     O1955   2.523       .  S
Zr1929     O1933   2.370       .  S
Zr1929     O1936   2.347       .  S
Zr1930     O1956   2.438       .  S
Zr1930     O1957   2.435       .  S
Zr1930     O1932   2.434       .  S
Zr1930     O1933   2.408       .  S
Zr1930     O1934   2.413       .  S
O1931      H1968   0.991       .  S
O1932      H1963   0.991       .  S
O1932      H1977   0.989       .  S
O1934      H1960   0.966       .  S
O1935     Zr1945   2.356       .  S
O1936     Zr1945   2.389       .  S
O1936      H1961   0.964       .  S
C1937      C2527   1.489       .  S
C1938      C2457   1.496       .  S
C1939      C2144   1.527       .  S
O1940      H1976   0.990       .  S
O1941      C1943   1.276       .  A
O1942      C1943   1.282       .  A
C1943      C2184   1.472       .  S
O1944     Zr1945   2.439       .  S
O1944      H1973   0.991       .  S
Zr1945     O1948   2.440       .  S
Zr1945     O1949   2.437       .  S
Zr1945     O1950   2.422       .  S
O1946      C1951   1.280       .  A
O1947      H1964   0.991       .  S
O1947      H1979   0.990       .  S
O1948      H1965   0.991       .  S
O1949      H1969   0.989       .  S
O1949      H1978   0.990       .  S
O1950      C1951   1.285       .  A
C1951      C2247   1.475       .  S
O1952      H1971   0.991       .  S
O1952      H1975   0.990       .  S
O1953      H1967   0.990       .  S
O1953      H1974   0.990       .  S
O1954      C1958   1.277       .  A
O1955      C1958   1.300       .  A
O1956      H1966   0.990       .  S
O1957      H1970   0.990       .  S
C1958      C2124   1.504       .  S
Zr1981     O1982   2.438       .  S
Zr1981     O1983   2.461       .  S
Zr1981     O1984   2.608       .  S
Zr1981     O1987   2.522       .  S
Zr1981     O1989   2.391       .  S
Zr1981     O1990   2.436       .  S
Zr1981     O1991   2.407       .  S
Zr1981     O1992   2.404       .  S
O1982      H2038   0.990       .  S
O1982      H2046   0.990       .  S
O1983      C2003   1.289       .  A
O1984      C2005   1.318       .  A
O1985     Zr1995   2.421       .  S
O1985      C2004   1.276       .  A
O1986     Zr1994   2.373       .  S
O1986      C2005   1.270       .  A
O1987      C2004   1.302       .  A
O1988     Zr1996   2.431       .  S
O1988      C2003   1.283       .  A
O1989     Zr1994   2.405       .  S
O1989     Zr1996   2.381       .  S
O1990     Zr1995   2.408       .  S
O1990     Zr1996   2.370       .  S
O1990      H2025   0.965       .  S
O1991     Zr1994   2.408       .  S
O1991     Zr2011   2.404       .  S
O1991      H2028   0.965       .  S
O1992     Zr1995   2.420       .  S
O1992     Zr2011   2.323       .  S
Zr1993     O2018   2.445       .  S
Zr1993     O2012   2.444       .  S
Zr1993     O2020   2.407       .  S
Zr1993     O2008   2.402       .  S
Zr1993     O1999   2.406       .  S
Zr1993     O2000   2.403       .  S
Zr1993     O2001   2.374       .  S
Zr1993     O2002   2.379       .  S
Zr1994     O2013   2.443       .  S
Zr1994     O2006   2.435       .  S
Zr1994     O2007   2.430       .  S
Zr1994     O2000   2.385       .  S
Zr1994     O2001   2.359       .  S
Zr1995     O1997   2.433       .  S
Zr1995     O2019   2.437       .  S
Zr1995     O2021   2.531       .  S
Zr1995     O1999   2.373       .  S
Zr1995     O2002   2.356       .  S
Zr1996     O2022   2.438       .  S
Zr1996     O2023   2.436       .  S
Zr1996     O1998   2.435       .  S
Zr1996     O1999   2.421       .  S
Zr1996     O2000   2.403       .  S
O1997      H2034   0.990       .  S
O1998      H2029   0.990       .  S
O1998      H2043   0.990       .  S
O2000      H2026   0.967       .  S
O2001     Zr2011   2.372       .  S
O2002     Zr2011   2.386       .  S
O2002      H2027   0.960       .  S
C2003      C2787   1.483       .  S
C2004      C2917   1.516       .  S
C2005      C2114   1.544       .  S
O2006      H2042   0.990       .  S
O2007      C2009   1.281       .  A
O2008      C2009   1.273       .  A
C2009      C2157   1.485       .  S
O2010     Zr2011   2.438       .  S
O2010      H2039   0.991       .  S
Zr2011     O2014   2.431       .  S
Zr2011     O2015   2.439       .  S
Zr2011     O2016   2.383       .  S
O2012      C2017   1.282       .  A
O2013      H2030   0.990       .  S
O2013      H2045   0.991       .  S
O2014      H2031   0.991       .  S
O2015      H2035   0.990       .  S
O2015      H2044   0.990       .  S
O2016      C2017   1.269       .  A
C2017      C2227   1.448       .  S
O2018      H2037   0.990       .  S
O2018      H2041   0.990       .  S
O2019      H2033   0.990       .  S
O2019      H2040   0.990       .  S
O2020      C2024   1.280       .  A
O2021      C2024   1.302       .  A
O2022      H2032   0.991       .  S
O2023      H2036   0.990       .  S
C2024      C2137   1.508       .  S
Zr2047     O2048   2.435       .  S
Zr2047     O2049   2.455       .  S
Zr2047     O2050   2.612       .  S
Zr2047     O2053   2.519       .  S
Zr2047     O2055   2.382       .  S
Zr2047     O2056   2.431       .  S
Zr2047     O2057   2.397       .  S
Zr2047     O2058   2.415       .  S
O2048      H2104   0.990       .  S
O2048      H2112   0.990       .  S
O2049      C2069   1.288       .  A
O2050      C2071   1.320       .  A
O2051     Zr2061   2.417       .  S
O2051      C2070   1.275       .  A
O2052     Zr2060   2.360       .  S
O2052      C2071   1.267       .  A
O2053      C2070   1.300       .  A
O2054     Zr2062   2.448       .  S
O2054      C2069   1.287       .  A
O2055     Zr2060   2.397       .  S
O2055     Zr2062   2.385       .  S
O2056     Zr2061   2.395       .  S
O2056     Zr2062   2.361       .  S
O2056      H2091   0.962       .  S
O2057     Zr2060   2.416       .  S
O2057     Zr2077   2.410       .  S
O2057      H2094   0.970       .  S
O2058     Zr2061   2.427       .  S
O2058     Zr2077   2.325       .  S
Zr2059     O2084   2.435       .  S
Zr2059     O2078   2.413       .  S
Zr2059     O2086   2.431       .  S
Zr2059     O2074   2.431       .  S
Zr2059     O2065   2.408       .  S
Zr2059     O2066   2.411       .  S
Zr2059     O2067   2.394       .  S
Zr2059     O2068   2.404       .  S
Zr2060     O2079   2.440       .  S
Zr2060     O2072   2.435       .  S
Zr2060     O2073   2.405       .  S
Zr2060     O2066   2.396       .  S
Zr2060     O2067   2.341       .  S
Zr2061     O2063   2.436       .  S
Zr2061     O2085   2.437       .  S
Zr2061     O2087   2.493       .  S
Zr2061     O2065   2.385       .  S
Zr2061     O2068   2.368       .  S
Zr2062     O2088   2.437       .  S
Zr2062     O2089   2.436       .  S
Zr2062     O2064   2.436       .  S
Zr2062     O2065   2.420       .  S
Zr2062     O2066   2.413       .  S
O2063      H2100   0.990       .  S
O2064      H2095   0.990       .  S
O2064      H2109   0.991       .  S
O2066      H2092   0.968       .  S
O2067     Zr2077   2.367       .  S
O2068     Zr2077   2.389       .  S
O2068      H2093   0.966       .  S
C2069      C2707   1.481       .  S
C2070      C2554   1.510       .  S
C2071      C2117   1.529       .  S
O2072      H2108   0.990       .  S
O2073      C2075   1.277       .  A
O2074      C2075   1.286       .  A
C2075      C2254   1.477       .  S
O2076     Zr2077   2.437       .  S
O2076      H2105   0.990       .  S
Zr2077     O2080   2.439       .  S
Zr2077     O2081   2.446       .  S
Zr2077     O2082   2.376       .  S
O2078      C2083   1.264       .  A
O2079      H2096   0.990       .  S
O2079      H2111   0.990       .  S
O2080      H2097   0.990       .  S
O2081      H2101   0.989       .  S
O2081      H2110   0.990       .  S
O2082      C2083   1.259       .  A
C2083      C2174   1.468       .  S
O2084      H2103   0.990       .  S
O2084      H2107   0.990       .  S
O2085      H2099   0.990       .  S
O2085      H2106   0.990       .  S
O2086      C2090   1.284       .  A
O2087      C2090   1.295       .  A
O2088      H2098   0.990       .  S
O2089      H2102   0.990       .  S
C2090      C2127   1.506       .  S
C2113      C2114   1.427       .  A
C2113      C2118   1.422       .  A
C2113     Br2120   1.933       .  S
C2114      C2115   1.421       .  A
C2115      C2116   1.445       .  A
C2115     Br2122   1.922       .  S
C2116      C2117   1.428       .  A
C2116     Br2121   1.922       .  S
C2117      C2118   1.412       .  A
C2118     Br2119   1.931       .  S
C2123      C2124   1.412       .  A
C2123      C2128   1.418       .  A
C2123     Br2130   1.922       .  S
C2124      C2125   1.415       .  A
C2125      C2126   1.421   1_455  A
C2125     Br2132   1.927       .  S
C2126      C2127   1.415       .  A
C2126     Br2131   1.928       .  S
C2127      C2128   1.414   1_655  A
C2128     Br2129   1.928       .  S
C2133      C2134   1.415       .  A
C2133      C2138   1.421       .  A
C2133     Br2140   1.929       .  S
C2134      C2135   1.409       .  A
C2135      C2136   1.418       .  A
C2135     Br2142   1.929       .  S
C2136      C2137   1.417       .  A
C2136     Br2141   1.925       .  S
C2137      C2138   1.415       .  A
C2138     Br2139   1.927       .  S
C2143      C2144   1.423       .  A
C2143      C2148   1.439       .  A
C2143     Br2150   1.921       .  S
C2144      C2145   1.417       .  A
C2145      C2146   1.421       .  A
C2145     Br2152   1.929       .  S
C2146      C2147   1.421       .  A
C2146     Br2151   1.935   1_545  S
C2147      C2148   1.419       .  A
C2148     Br2149   1.923       .  S
C2153      C2154   1.402       .  A
C2153      C2158   1.402       .  A
C2153     Br2160   1.929       .  S
C2154      C2155   1.396       .  A
C2155      C2156   1.399       .  A
C2155     Br2162   1.935       .  S
C2156      C2157   1.428       .  A
C2156     Br2161   1.933       .  S
C2157      C2158   1.420       .  A
C2158     Br2159   1.934       .  S
C2163      C2164   1.409       .  A
C2163      C2168   1.400       .  A
C2163     Br2170   1.928       .  S
C2164      C2165   1.399       .  A
C2165      C2166   1.387       .  A
C2165     Br2172   1.938       .  S
C2166      C2167   1.408       .  A
C2166     Br2171   1.920       .  S
C2167      C2168   1.401       .  A
C2168     Br2169   1.929       .  S
C2173      C2174   1.417       .  A
C2173      C2178   1.399       .  A
C2173     Br2180   1.933       .  S
C2174      C2175   1.429       .  A
C2175      C2176   1.388       .  A
C2175     Br2182   1.944       .  S
C2176      C2177   1.389       .  A
C2176     Br2181   1.940       .  S
C2177      C2178   1.401       .  A
C2178     Br2179   1.931       .  S
C2183      C2184   1.411       .  A
C2183      C2188   1.401       .  A
C2183     Br2190   1.934       .  S
C2184      C2185   1.405       .  A
C2185      C2186   1.396       .  A
C2185     Br2192   1.929       .  S
C2186      C2187   1.410       .  A
C2186     Br2191   1.926       .  S
C2187      C2188   1.413       .  A
C2188     Br2189   1.931       .  S
C2193      C2194   1.431       .  A
C2193      C2198   1.430       .  A
C2193     Br2200   1.927       .  S
C2194      C2195   1.411       .  A
C2195      C2196   1.428       .  A
C2195     Br2202   1.928       .  S
C2196      C2197   1.429       .  A
C2196     Br2201   1.927       .  S
C2197      C2198   1.409       .  A
C2198     Br2199   1.925       .  S
C2203      C2204   1.414       .  A
C2203      C2208   1.427       .  A
C2203     Br2210   1.925       .  S
C2204      C2205   1.421       .  A
C2205      C2206   1.426       .  A
C2205     Br2212   1.927       .  S
C2206      C2207   1.415       .  A
C2206     Br2211   1.927       .  S
C2207      C2208   1.424       .  A
C2208     Br2209   1.929       .  S
C2213      C2214   1.404       .  A
C2213      C2218   1.400       .  A
C2213     Br2220   1.928       .  S
C2214      C2215   1.403       .  A
C2215      C2216   1.399       .  A
C2215     Br2222   1.938       .  S
C2216      C2217   1.423       .  A
C2216     Br2221   1.932       .  S
C2217      C2218   1.416       .  A
C2218     Br2219   1.933       .  S
C2223      C2224   1.397       .  A
C2223      C2228   1.383       .  A
C2223     Br2230   1.939       .  S
C2224      C2225   1.409       .  A
C2225      C2226   1.404       .  A
C2225     Br2232   1.928       .  S
C2226      C2227   1.406       .  A
C2226     Br2231   1.925       .  S
C2227      C2228   1.405       .  A
C2228     Br2229   1.912       .  S
C2233      C2234   1.418       .  A
C2233      C2238   1.430   1_455  A
C2233     Br2240   1.925   1_455  S
C2234      C2235   1.422       .  A
C2235      C2236   1.426       .  A
C2235     Br2242   1.931       .  S
C2236      C2237   1.415       .  A
C2236     Br2241   1.922       .  S
C2237      C2238   1.418   1_455  A
C2238     Br2239   1.925       .  S
C2243      C2244   1.415       .  A
C2243      C2248   1.400       .  A
C2243     Br2250   1.931       .  S
C2244      C2245   1.415       .  A
C2245      C2246   1.396       .  A
C2245     Br2252   1.933       .  S
C2246      C2247   1.405       .  A
C2246     Br2251   1.928       .  S
C2247      C2248   1.405       .  A
C2248     Br2249   1.930       .  S
C2253      C2254   1.418       .  A
C2253      C2258   1.401       .  A
C2253     Br2260   1.929       .  S
C2254      C2255   1.414       .  A
C2255      C2256   1.399       .  A
C2255     Br2262   1.912       .  S
C2256      C2257   1.400       .  A
C2256     Br2261   1.928   1_655  S
C2257      C2258   1.404       .  A
C2258     Br2259   1.927       .  S
C2263      C2264   1.421       .  A
C2263      C2268   1.445       .  A
C2263     Br2270   1.923       .  S
C2264      C2265   1.425       .  A
C2265      C2266   1.422       .  A
C2265     Br2272   1.932       .  S
C2266      C2267   1.412       .  A
C2266     Br2271   1.928       .  S
C2267      C2268   1.429       .  A
C2268     Br2269   1.923       .  S
C2273      C2274   1.438       .  A
C2273      C2278   1.437       .  A
C2273     Br2280   1.931       .  S
C2274      C2275   1.417       .  A
C2275      C2276   1.440       .  A
C2275     Br2282   1.924       .  S
C2276      C2277   1.434       .  A
C2276     Br2281   1.930       .  S
C2277      C2278   1.413       .  A
C2278     Br2279   1.928       .  S
C2283      C2284   1.422       .  A
C2283      C2288   1.428       .  A
C2283     Br2290   1.929       .  S
C2284      C2285   1.417       .  A
C2285      C2286   1.429       .  A
C2285     Br2292   1.924       .  S
C2286      C2287   1.423       .  A
C2286     Br2291   1.931       .  S
C2287      C2288   1.415       .  A
C2288     Br2289   1.926       .  S
C2293      C2294   1.421   1_455  A
C2293      C2298   1.428       .  A
C2293     Br2300   1.928       .  S
C2294      C2295   1.414       .  A
C2295      C2296   1.427   1_655  A
C2295     Br2302   1.929       .  S
C2296      C2297   1.425       .  A
C2296     Br2301   1.929       .  S
C2297      C2298   1.415       .  A
C2298     Br2299   1.925       .  S
C2303      C2304   1.413       .  A
C2303      C2308   1.431       .  A
C2303     Br2310   1.923       .  S
C2304      C2305   1.434       .  A
C2305      C2306   1.436       .  A
C2305     Br2312   1.925       .  S
C2306      C2307   1.412       .  A
C2306     Br2311   1.928       .  S
C2307      C2308   1.428       .  A
C2308     Br2309   1.927       .  S
C2313      C2314   1.417       .  A
C2313      C2318   1.400       .  A
C2313     Br2320   1.933       .  S
C2314      C2315   1.423       .  A
C2315      C2316   1.396       .  A
C2315     Br2322   1.929       .  S
C2316      C2317   1.400       .  A
C2316     Br2321   1.937       .  S
C2317      C2318   1.405       .  A
C2318     Br2319   1.932       .  S
C2323      C2324   1.407       .  A
C2323      C2328   1.385       .  A
C2323     Br2330   1.920   1_455  S
C2324      C2325   1.405       .  A
C2325      C2326   1.402       .  A
C2325     Br2332   1.928       .  S
C2326      C2327   1.409       .  A
C2326     Br2331   1.928       .  S
C2327      C2328   1.399       .  A
C2328     Br2329   1.936       .  S
C2333      C2334   1.425       .  A
C2333      C2338   1.400       .  A
C2333     Br2340   1.927       .  S
C2334      C2335   1.417       .  A
C2335      C2336   1.398       .  A
C2335     Br2342   1.933       .  S
C2336      C2337   1.404       .  A
C2336     Br2341   1.932       .  S
C2337      C2338   1.397       .  A
C2338     Br2339   1.933       .  S
C2343      C2344   1.409       .  A
C2343      C2348   1.407       .  A
C2343     Br2350   1.929       .  S
C2344      C2345   1.407       .  A
C2345      C2346   1.385       .  A
C2345     Br2352   1.911       .  S
C2346      C2347   1.393       .  A
C2346     Br2351   1.934       .  S
C2347      C2348   1.413       .  A
C2348     Br2349   1.927       .  S
C2353      C2354   1.426       .  A
C2353      C2358   1.422       .  A
C2353     Br2360   1.933       .  S
C2354      C2355   1.418       .  A
C2355      C2356   1.440       .  A
C2355     Br2362   1.922       .  S
C2356      C2357   1.424       .  A
C2356     Br2361   1.921       .  S
C2357      C2358   1.416       .  A
C2358     Br2359   1.935       .  S
C2363      C2364   1.416       .  A
C2363      C2368   1.426       .  A
C2363     Br2370   1.924       .  S
C2364      C2365   1.420   1_455  A
C2365      C2366   1.425   1_655  A
C2365     Br2372   1.925       .  S
C2366      C2367   1.413       .  A
C2366     Br2371   1.929   1_455  S
C2367      C2368   1.416       .  A
C2368     Br2369   1.928       .  S
C2373      C2374   1.415   1_655  A
C2373      C2378   1.410       .  A
C2373     Br2380   1.925       .  S
C2374      C2375   1.412       .  A
C2375      C2376   1.382   1_455  A
C2375     Br2382   1.936       .  S
C2376      C2377   1.396       .  A
C2376     Br2381   1.938       .  S
C2377      C2378   1.408       .  A
C2378     Br2379   1.929       .  S
C2383      C2384   1.429       .  A
C2383      C2388   1.400       .  A
C2383     Br2390   1.926       .  S
C2384      C2385   1.418       .  A
C2385      C2386   1.403       .  A
C2385     Br2392   1.933       .  S
C2386      C2387   1.408       .  A
C2386     Br2391   1.933       .  S
C2387      C2388   1.397       .  A
C2388     Br2389   1.941       .  S
C2393      C2394   1.409       .  A
C2393      C2398   1.402       .  A
C2393     Br2400   1.930       .  S
C2394      C2395   1.399       .  A
C2395      C2396   1.401       .  A
C2395     Br2402   1.934       .  S
C2396      C2397   1.424       .  A
C2396     Br2401   1.928       .  S
C2397      C2398   1.412       .  A
C2398     Br2399   1.931       .  S
C2403      C2404   1.415       .  A
C2403      C2408   1.418       .  A
C2403     Br2410   1.926       .  S
C2404      C2405   1.413       .  A
C2405      C2406   1.419       .  A
C2405     Br2412   1.927       .  S
C2406      C2407   1.414       .  A
C2406     Br2411   1.929       .  S
C2407      C2408   1.410       .  A
C2408     Br2409   1.928       .  S
C2413      C2414   1.407       .  A
C2413      C2418   1.395       .  A
C2413     Br2420   1.927       .  S
C2414      C2415   1.393       .  A
C2415      C2416   1.385       .  A
C2415     Br2422   1.939       .  S
C2416      C2417   1.411       .  A
C2416     Br2421   1.920       .  S
C2417      C2418   1.400       .  A
C2418     Br2419   1.929       .  S
C2423      C2424   1.424       .  A
C2423      C2428   1.427       .  A
C2423     Br2430   1.932       .  S
C2424      C2425   1.429       .  A
C2425      C2426   1.452       .  A
C2425     Br2432   1.922       .  S
C2426      C2427   1.427       .  A
C2426     Br2431   1.922       .  S
C2427      C2428   1.419       .  A
C2428     Br2429   1.934   1_565  S
C2433      C2434   1.418   1_556  A
C2433      C2438   1.413       .  A
C2433     Br2440   1.932       .  S
C2434      C2435   1.419       .  A
C2435      C2436   1.413   1_455  A
C2435     Br2442   1.934       .  S
C2436      C2437   1.419   1_554  A
C2436     Br2441   1.937       .  S
C2437      C2438   1.415   1_655  A
C2438     Br2439   1.931   1_455  S
C2443      C2444   1.411   1_556  A
C2443      C2448   1.413       .  A
C2443     Br2450   1.924       .  S
C2444      C2445   1.409       .  A
C2445      C2446   1.413       .  A
C2445     Br2452   1.929       .  S
C2446      C2447   1.412   1_554  A
C2446     Br2451   1.926       .  S
C2447      C2448   1.410       .  A
C2448     Br2449   1.928       .  S
C2453      C2454   1.420       .  A
C2453      C2458   1.411       .  A
C2453     Br2460   1.931       .  S
C2454      C2455   1.427       .  A
C2455      C2456   1.421       .  A
C2455     Br2462   1.931       .  S
C2456      C2457   1.409       .  A
C2456     Br2461   1.930       .  S
C2457      C2458   1.413       .  A
C2458     Br2459   1.934       .  S
C2463      C2464   1.409       .  A
C2463      C2468   1.413       .  A
C2463     Br2470   1.929       .  S
C2464      C2465   1.411       .  A
C2465      C2466   1.412       .  A
C2465     Br2472   1.928       .  S
C2466      C2467   1.412       .  A
C2466     Br2471   1.928       .  S
C2467      C2468   1.412       .  A
C2468     Br2469   1.926       .  S
C2473      C2474   1.417       .  A
C2473      C2478   1.426       .  A
C2473     Br2480   1.934       .  S
C2474      C2475   1.427       .  A
C2475      C2476   1.445       .  A
C2475     Br2482   1.922       .  S
C2476      C2477   1.423       .  A
C2476     Br2481   1.923       .  S
C2477      C2478   1.427       .  A
C2478     Br2479   1.931       .  S
C2483      C2484   1.419       .  A
C2483      C2488   1.422       .  A
C2483     Br2490   1.932       .  S
C2484      C2485   1.422   1_546  A
C2485      C2486   1.417       .  A
C2485     Br2492   1.935       .  S
C2486      C2487   1.412   1_565  A
C2486     Br2491   1.923       .  S
C2487      C2488   1.422   1_554  A
C2488     Br2489   1.931       .  S
C2493      C2494   1.410       .  A
C2493      C2498   1.411       .  A
C2493     Br2500   1.930       .  S
C2494      C2495   1.420   1_554  A
C2495      C2496   1.415       .  A
C2495     Br2502   1.930       .  S
C2496      C2497   1.406       .  A
C2496     Br2501   1.927       .  S
C2497      C2498   1.410   1_556  A
C2498     Br2499   1.917       .  S
C2503      C2504   1.406       .  A
C2503      C2508   1.398       .  A
C2503     Br2510   1.930       .  S
C2504      C2505   1.402       .  A
C2505      C2506   1.398       .  A
C2505     Br2512   1.935       .  S
C2506      C2507   1.420       .  A
C2506     Br2511   1.925       .  S
C2507      C2508   1.414       .  A
C2508     Br2509   1.929       .  S
C2513      C2514   1.414       .  A
C2513      C2518   1.414       .  A
C2513     Br2520   1.936       .  S
C2514      C2515   1.412       .  A
C2515      C2516   1.417       .  A
C2515     Br2522   1.931       .  S
C2516      C2517   1.424       .  A
C2516     Br2521   1.934       .  S
C2517      C2518   1.421       .  A
C2518     Br2519   1.931       .  S
C2523      C2524   1.415       .  A
C2523      C2528   1.414       .  A
C2523     Br2530   1.929       .  S
C2524      C2525   1.409   1_565  A
C2525      C2526   1.412       .  A
C2525     Br2532   1.929       .  S
C2526      C2527   1.415       .  A
C2526     Br2531   1.928       .  S
C2527      C2528   1.410   1_545  A
C2528     Br2529   1.930       .  S
C2533      C2534   1.406       .  A
C2533      C2538   1.398       .  A
C2533     Br2540   1.927       .  S
C2534      C2535   1.396       .  A
C2535      C2536   1.383       .  A
C2535     Br2542   1.938       .  S
C2536      C2537   1.407       .  A
C2536     Br2541   1.927       .  S
C2537      C2538   1.402       .  A
C2538     Br2539   1.928       .  S
C2543      C2544   1.430       .  A
C2543      C2548   1.429       .  A
C2543     Br2550   1.936       .  S
C2544      C2545   1.421       .  A
C2545      C2546   1.445       .  A
C2545     Br2552   1.923       .  S
C2546      C2547   1.428       .  A
C2546     Br2551   1.922       .  S
C2547      C2548   1.417       .  A
C2548     Br2549   1.931   1_565  S
C2553      C2554   1.417       .  A
C2553      C2558   1.418       .  A
C2553     Br2560   1.934       .  S
C2554      C2555   1.420       .  A
C2555      C2556   1.413       .  A
C2555     Br2562   1.933       .  S
C2556      C2557   1.415       .  A
C2556     Br2561   1.935       .  S
C2557      C2558   1.424       .  A
C2558     Br2559   1.936       .  S
C2563      C2564   1.408       .  A
C2563      C2568   1.409   1_565  A
C2563     Br2570   1.930       .  S
C2564      C2565   1.411   1_565  A
C2565      C2566   1.414       .  A
C2565     Br2572   1.928       .  S
C2566      C2567   1.411       .  A
C2566     Br2571   1.926       .  S
C2567      C2568   1.409       .  A
C2568     Br2569   1.928   1_545  S
C2573      C2574   1.426       .  A
C2573      C2578   1.430       .  A
C2573     Br2580   1.929       .  S
C2574      C2575   1.417       .  A
C2575      C2576   1.429       .  A
C2575     Br2582   1.923       .  S
C2576      C2577   1.420       .  A
C2576     Br2581   1.927       .  S
C2577      C2578   1.415       .  A
C2578     Br2579   1.929       .  S
C2583      C2584   1.410       .  A
C2583      C2588   1.387       .  A
C2583     Br2590   1.926       .  S
C2584      C2585   1.404       .  A
C2585      C2586   1.396       .  A
C2585     Br2592   1.923       .  S
C2586      C2587   1.403       .  A
C2586     Br2591   1.931       .  S
C2587      C2588   1.397       .  A
C2588     Br2589   1.935       .  S
C2593      C2594   1.420   1_556  A
C2593      C2598   1.419   1_645  A
C2593     Br2600   1.933   1_545  S
C2594      C2595   1.416   1_655  A
C2595      C2596   1.413       .  A
C2595     Br2602   1.934       .  S
C2596      C2597   1.423   1_554  A
C2596     Br2601   1.933       .  S
C2597      C2598   1.416   1_545  A
C2598     Br2599   1.929       .  S
C2603      C2604   1.409       .  A
C2603      C2608   1.410       .  A
C2603     Br2610   1.927       .  S
C2604      C2605   1.409   1_554  A
C2605      C2606   1.409       .  A
C2605     Br2612   1.927       .  S
C2606      C2607   1.407       .  A
C2606     Br2611   1.928       .  S
C2607      C2608   1.409   1_556  A
C2608     Br2609   1.924       .  S
C2613      C2614   1.422       .  A
C2613      C2618   1.401       .  A
C2613     Br2620   1.929       .  S
C2614      C2615   1.425       .  A
C2615      C2616   1.398       .  A
C2615     Br2622   1.928       .  S
C2616      C2617   1.396       .  A
C2616     Br2621   1.930   1_455  S
C2617      C2618   1.398       .  A
C2618     Br2619   1.931       .  S
C2623      C2624   1.413       .  A
C2623      C2628   1.434       .  A
C2623     Br2630   1.925       .  S
C2624      C2625   1.432       .  A
C2625      C2626   1.433       .  A
C2625     Br2632   1.930       .  S
C2626      C2627   1.413       .  A
C2626     Br2631   1.925       .  S
C2627      C2628   1.430       .  A
C2628     Br2629   1.928       .  S
C2633      C2634   1.420       .  A
C2633      C2638   1.425       .  A
C2633     Br2640   1.930       .  S
C2634      C2635   1.413   1_455  A
C2635      C2636   1.426       .  A
C2635     Br2642   1.927       .  S
C2636      C2637   1.424       .  A
C2636     Br2641   1.928       .  S
C2637      C2638   1.415   1_655  A
C2638     Br2639   1.926       .  S
C2643      C2644   1.421       .  A
C2643      C2648   1.411       .  A
C2643     Br2650   1.933       .  S
C2644      C2645   1.425   1_556  A
C2645      C2646   1.416       .  A
C2645     Br2652   1.935       .  S
C2646      C2647   1.409       .  A
C2646     Br2651   1.928       .  S
C2647      C2648   1.412   1_554  A
C2648     Br2649   1.935       .  S
C2653      C2654   1.415   1_554  A
C2653      C2658   1.411       .  A
C2653     Br2660   1.927       .  S
C2654      C2655   1.409       .  A
C2655      C2656   1.410   1_556  A
C2655     Br2662   1.930       .  S
C2656      C2657   1.412       .  A
C2656     Br2661   1.928   1_554  S
C2657      C2658   1.406       .  A
C2658     Br2659   1.929       .  S
C2663      C2664   1.414       .  A
C2663      C2668   1.426       .  A
C2663     Br2670   1.928       .  S
C2664      C2665   1.418       .  A
C2665      C2666   1.423       .  A
C2665     Br2672   1.928       .  S
C2666      C2667   1.414       .  A
C2666     Br2671   1.927       .  S
C2667      C2668   1.420       .  A
C2668     Br2669   1.927       .  S
C2673      C2674   1.415       .  A
C2673      C2678   1.395       .  A
C2673     Br2680   1.932       .  S
C2674      C2675   1.416       .  A
C2675      C2676   1.403       .  A
C2675     Br2682   1.923       .  S
C2676      C2677   1.401       .  A
C2676     Br2681   1.927       .  S
C2677      C2678   1.406       .  A
C2678     Br2679   1.929       .  S
C2683      C2684   1.411       .  A
C2683      C2688   1.401       .  A
C2683     Br2690   1.932       .  S
C2684      C2685   1.410       .  A
C2685      C2686   1.395       .  A
C2685     Br2692   1.930       .  S
C2686      C2687   1.405       .  A
C2686     Br2691   1.929       .  S
C2687      C2688   1.412       .  A
C2688     Br2689   1.932       .  S
C2693      C2694   1.423       .  A
C2693      C2698   1.419       .  A
C2693     Br2700   1.937       .  S
C2694      C2695   1.409       .  A
C2695      C2696   1.411       .  A
C2695     Br2702   1.926       .  S
C2696      C2697   1.419       .  A
C2696     Br2701   1.930       .  S
C2697      C2698   1.420       .  A
C2698     Br2699   1.933       .  S
C2703      C2704   1.416       .  A
C2703      C2708   1.411       .  A
C2703     Br2710   1.928       .  S
C2704      C2705   1.403       .  A
C2705      C2706   1.406       .  A
C2705     Br2712   1.932       .  S
C2706      C2707   1.414       .  A
C2706     Br2711   1.919       .  S
C2707      C2708   1.405       .  A
C2708     Br2709   1.928       .  S
C2713      C2714   1.414       .  A
C2713      C2718   1.422   1_655  A
C2713     Br2720   1.928       .  S
C2714      C2715   1.416   1_655  A
C2715      C2716   1.420       .  A
C2715     Br2722   1.926       .  S
C2716      C2717   1.412       .  A
C2716     Br2721   1.928       .  S
C2717      C2718   1.417       .  A
C2718     Br2719   1.928   1_455  S
C2723      C2724   1.421       .  A
C2723      C2728   1.400       .  A
C2723     Br2730   1.930       .  S
C2724      C2725   1.422       .  A
C2725      C2726   1.402       .  A
C2725     Br2732   1.932       .  S
C2726      C2727   1.401       .  A
C2726     Br2731   1.931       .  S
C2727      C2728   1.403       .  A
C2728     Br2729   1.936   1_655  S
C2733      C2734   1.410       .  A
C2733      C2738   1.400       .  A
C2733     Br2740   1.928       .  S
C2734      C2735   1.396       .  A
C2735      C2736   1.382       .  A
C2735     Br2742   1.937       .  S
C2736      C2737   1.411       .  A
C2736     Br2741   1.930       .  S
C2737      C2738   1.400       .  A
C2738     Br2739   1.928       .  S
C2743      C2744   1.422       .  A
C2743      C2748   1.441       .  A
C2743     Br2750   1.922       .  S
C2744      C2745   1.420       .  A
C2745      C2746   1.420       .  A
C2745     Br2752   1.932       .  S
C2746      C2747   1.415       .  A
C2746     Br2751   1.932       .  S
C2747      C2748   1.422       .  A
C2748     Br2749   1.922       .  S
C2753      C2754   1.418       .  A
C2753      C2758   1.418       .  A
C2753     Br2760   1.930       .  S
C2754      C2755   1.421       .  A
C2755      C2756   1.415       .  A
C2755     Br2762   1.938       .  S
C2756      C2757   1.418       .  A
C2756     Br2761   1.935       .  S
C2757      C2758   1.421       .  A
C2758     Br2759   1.935       .  S
C2763      C2764   1.407       .  A
C2763      C2768   1.408       .  A
C2763     Br2770   1.929       .  S
C2764      C2765   1.417       .  A
C2765      C2766   1.412       .  A
C2765     Br2772   1.925       .  S
C2766      C2767   1.405       .  A
C2766     Br2771   1.930       .  S
C2767      C2768   1.412       .  A
C2768     Br2769   1.927       .  S
C2773      C2774   1.421       .  A
C2773      C2778   1.414       .  A
C2773     Br2780   1.933       .  S
C2774      C2775   1.424       .  A
C2775      C2776   1.419       .  A
C2775     Br2782   1.932       .  S
C2776      C2777   1.409       .  A
C2776     Br2781   1.926       .  S
C2777      C2778   1.417       .  A
C2778     Br2779   1.937   1_455  S
C2783      C2784   1.416       .  A
C2783      C2788   1.412       .  A
C2783     Br2790   1.928       .  S
C2784      C2785   1.411       .  A
C2785      C2786   1.414       .  A
C2785     Br2792   1.928       .  S
C2786      C2787   1.414       .  A
C2786     Br2791   1.931       .  S
C2787      C2788   1.408       .  A
C2788     Br2789   1.932       .  S
C2793      C2794   1.427       .  A
C2793      C2798   1.442       .  A
C2793     Br2800   1.922       .  S
C2794      C2795   1.415       .  A
C2795      C2796   1.423       .  A
C2795     Br2802   1.923       .  S
C2796      C2797   1.424       .  A
C2796     Br2801   1.937       .  S
C2797      C2798   1.419       .  A
C2798     Br2799   1.924       .  S
C2803      C2804   1.418       .  A
C2803      C2808   1.415       .  A
C2803     Br2810   1.936       .  S
C2804      C2805   1.424       .  A
C2805      C2806   1.420       .  A
C2805     Br2812   1.935       .  S
C2806      C2807   1.418       .  A
C2806     Br2811   1.934       .  S
C2807      C2808   1.426       .  A
C2808     Br2809   1.942       .  S
C2813      C2814   1.411       .  A
C2813      C2818   1.411       .  A
C2813     Br2820   1.926       .  S
C2814      C2815   1.413   1_565  A
C2815      C2816   1.412       .  A
C2815     Br2822   1.926       .  S
C2816      C2817   1.409       .  A
C2816     Br2821   1.931       .  S
C2817      C2818   1.409   1_545  A
C2818     Br2819   1.929       .  S
C2823      C2824   1.416       .  A
C2823      C2828   1.393       .  A
C2823     Br2830   1.934       .  S
C2824      C2825   1.415       .  A
C2825      C2826   1.402       .  A
C2825     Br2832   1.931       .  S
C2826      C2827   1.410       .  A
C2826     Br2831   1.932       .  S
C2827      C2828   1.400       .  A
C2828     Br2829   1.930   1_655  S
C2833      C2834   1.419       .  A
C2833      C2838   1.414       .  A
C2833     Br2840   1.935       .  S
C2834      C2835   1.420   1_545  A
C2835      C2836   1.415       .  A
C2835     Br2842   1.935       .  S
C2836      C2837   1.420   1_565  A
C2836     Br2841   1.936       .  S
C2837      C2838   1.415       .  A
C2838     Br2839   1.928       .  S
C2843      C2844   1.411       .  A
C2843      C2848   1.411       .  A
C2843     Br2850   1.932       .  S
C2844      C2845   1.412       .  A
C2845      C2846   1.416       .  A
C2845     Br2852   1.929       .  S
C2846      C2847   1.411       .  A
C2846     Br2851   1.927       .  S
C2847      C2848   1.412       .  A
C2848     Br2849   1.927       .  S
C2853      C2854   1.407       .  A
C2853      C2858   1.382       .  A
C2853     Br2860   1.915       .  S
C2854      C2855   1.399       .  A
C2855      C2856   1.397       .  A
C2855     Br2862   1.926       .  S
C2856      C2857   1.407       .  A
C2856     Br2861   1.927       .  S
C2857      C2858   1.396       .  A
C2858     Br2859   1.939       .  S
C2863      C2864   1.424       .  A
C2863      C2868   1.442       .  A
C2863     Br2870   1.923       .  S
C2864      C2865   1.435       .  A
C2865      C2866   1.424       .  A
C2865     Br2872   1.931   1_565  S
C2866      C2867   1.408       .  A
C2866     Br2871   1.930       .  S
C2867      C2868   1.426       .  A
C2868     Br2869   1.927       .  S
C2873      C2874   1.420       .  A
C2873      C2878   1.416       .  A
C2873     Br2880   1.932       .  S
C2874      C2875   1.427       .  A
C2875      C2876   1.421       .  A
C2875     Br2882   1.932       .  S
C2876      C2877   1.411       .  A
C2876     Br2881   1.931       .  S
C2877      C2878   1.419       .  A
C2878     Br2879   1.935       .  S
C2883      C2884   1.410       .  A
C2883      C2888   1.417       .  A
C2883     Br2890   1.926       .  S
C2884      C2885   1.410       .  A
C2885      C2886   1.410       .  A
C2885     Br2892   1.927       .  S
C2886      C2887   1.409       .  A
C2886     Br2891   1.929       .  S
C2887      C2888   1.413       .  A
C2888     Br2889   1.923       .  S
C2893      C2894   1.414       .  A
C2893      C2898   1.428   1_655  A
C2893     Br2900   1.926       .  S
C2894      C2895   1.418   1_655  A
C2895      C2896   1.430       .  A
C2895     Br2902   1.926       .  S
C2896      C2897   1.418       .  A
C2896     Br2901   1.924       .  S
C2897      C2898   1.424       .  A
C2898     Br2899   1.928       .  S
C2903      C2904   1.416       .  A
C2903      C2908   1.399       .  A
C2903     Br2910   1.928       .  S
C2904      C2905   1.412       .  A
C2905      C2906   1.396       .  A
C2905     Br2912   1.929       .  S
C2906      C2907   1.406       .  A
C2906     Br2911   1.923       .  S
C2907      C2908   1.400       .  A
C2908     Br2909   1.926       .  S
C2913      C2914   1.423       .  A
C2913      C2918   1.419       .  A
C2913     Br2920   1.934       .  S
C2914      C2915   1.418       .  A
C2915      C2916   1.415       .  A
C2915     Br2922   1.936       .  S
C2916      C2917   1.422       .  A
C2916     Br2921   1.938       .  S
C2917      C2918   1.418       .  A
C2918     Br2919   1.933       .  S
C2923      C2924   1.413       .  A
C2923      C2928   1.415       .  A
C2923     Br2930   1.928       .  S
C2924      C2925   1.415       .  A
C2925      C2926   1.413       .  A
C2925     Br2932   1.926       .  S
C2926      C2927   1.409       .  A
C2926     Br2931   1.930       .  S
C2927      C2928   1.411       .  A
C2928     Br2929   1.928       .  S
C2933      C2934   1.412       .  A
C2933      C2938   1.423       .  A
C2933     Br2940   1.925       .  S
C2934      C2935   1.420       .  A
C2935      C2936   1.428       .  A
C2935     Br2942   1.927       .  S
C2936      C2937   1.417       .  A
C2936     Br2941   1.926       .  S
C2937      C2938   1.420       .  A
C2938     Br2939   1.930       .  S
C2943      C2944   1.398       .  A
C2943      C2948   1.398       .  A
C2943     Br2950   1.937       .  S
C2944      C2945   1.398       .  A
C2945      C2946   1.402       .  A
C2945     Br2952   1.933       .  S
C2946      C2947   1.423       .  A
C2946     Br2951   1.931       .  S
C2947      C2948   1.428       .  A
C2948     Br2949   1.933       .  S
C2953      C2954   1.416       .  A
C2953      C2958   1.440       .  A
C2953     Br2960   1.926       .  S
C2954      C2955   1.439       .  A
C2955      C2956   1.439       .  A
C2955     Br2962   1.929       .  S
C2956      C2957   1.413       .  A
C2956     Br2961   1.925       .  S
C2957      C2958   1.437       .  A
C2958     Br2959   1.930       .  S
C2963      C2964   1.417       .  A
C2963      C2968   1.417       .  A
C2963     Br2970   1.932       .  S
C2964      C2965   1.418       .  A
C2965      C2966   1.414       .  A
C2965     Br2972   1.934       .  S
C2966      C2967   1.416       .  A
C2966     Br2971   1.932       .  S
C2967      C2968   1.421       .  A
C2968     Br2969   1.933       .  S
C2973      C2974   1.405   1_545  A
C2973      C2978   1.408       .  A
C2973     Br2980   1.930       .  S
C2974      C2975   1.415       .  A
C2975      C2976   1.413   1_565  A
C2975     Br2982   1.930       .  S
C2976      C2977   1.409       .  A
C2976     Br2981   1.929   1_545  S
C2977      C2978   1.411       .  A
C2978     Br2979   1.925       .  S
C2983      C2984   1.417       .  A
C2983      C2988   1.423       .  A
C2983     Br2990   1.927       .  S
C2984      C2985   1.411       .  A
C2985      C2986   1.418       .  A
C2985     Br2992   1.929       .  S
C2986      C2987   1.418       .  A
C2986     Br2991   1.931       .  S
C2987      C2988   1.415       .  A
C2988     Br2989   1.929       .  S
C2993      C2994   1.425       .  A
C2993      C2998   1.383       .  A
C2993     Br3000   1.942       .  S
C2994      C2995   1.417       .  A
C2995      C2996   1.404       .  A
C2995     Br3002   1.931       .  S
C2996      C2997   1.402       .  A
C2996     Br3001   1.929       .  S
C2997      C2998   1.389       .  A
C2998     Br2999   1.939       .  S
C3003      C3004   1.402       .  A
C3003      C3008   1.393       .  A
C3003     Br3010   1.939       .  S
C3004      C3005   1.403       .  A
C3005      C3006   1.401       .  A
C3005     Br3012   1.933       .  S
C3006      C3007   1.420       .  A
C3006     Br3011   1.933       .  S
C3007      C3008   1.419       .  A
C3008     Br3009   1.925       .  S
C3013      C3014   1.422   1_565  A
C3013      C3018   1.416       .  A
C3013     Br3020   1.932       .  S
C3014      C3015   1.413       .  A
C3015      C3016   1.416       .  A
C3015     Br3022   1.928       .  S
C3016      C3017   1.421   1_455  A
C3016     Br3021   1.932   1_455  S
C3017      C3018   1.417   1_645  A
C3018     Br3019   1.934       .  S
C3023      C3024   1.415       .  A
C3023      C3028   1.408       .  A
C3023     Br3030   1.919       .  S
C3024      C3025   1.403       .  A
C3025      C3026   1.408       .  A
C3025     Br3032   1.930       .  S
C3026      C3027   1.415       .  A
C3026     Br3031   1.924       .  S
C3027      C3028   1.403       .  A
C3028     Br3029   1.932       .  S
C3033      C3034   1.413       .  A
C3033      C3038   1.405       .  A
C3033     Br3040   1.924       .  S
C3034      C3035   1.419       .  A
C3035      C3036   1.408       .  A
C3035     Br3042   1.931       .  S
C3036      C3037   1.414       .  A
C3036     Br3041   1.936       .  S
C3037      C3038   1.407       .  A
C3038     Br3039   1.929       .  S
C3043      C3044   1.418       .  A
C3043      C3048   1.424   1_655  A
C3043     Br3050   1.926       .  S
C3044      C3045   1.417   1_655  A
C3045      C3046   1.428       .  A
C3045     Br3052   1.923       .  S
C3046      C3047   1.417       .  A
C3046     Br3051   1.926       .  S
C3047      C3048   1.412       .  A
C3048     Br3049   1.927   1_455  S
C3053      C3054   1.395       .  A
C3053      C3058   1.380       .  A
C3053     Br3060   1.938       .  S
C3054      C3055   1.403       .  A
C3055      C3056   1.401       .  A
C3055     Br3062   1.927       .  S
C3056      C3057   1.408       .  A
C3056     Br3061   1.920       .  S
C3057      C3058   1.409       .  A
C3058     Br3059   1.931   1_655  S
C3063      C3064   1.422       .  A
C3063      C3068   1.441       .  A
C3063     Br3070   1.921       .  S
C3064      C3065   1.419       .  A
C3065      C3066   1.420       .  A
C3065     Br3072   1.933   1_545  S
C3066      C3067   1.419       .  A
C3066     Br3071   1.935       .  S
C3067      C3068   1.424       .  A
C3068     Br3069   1.923       .  S
