geometry optimzed in LAMMPS
_audit_creation_date              2020-12-01 
_audit_creation_method            'lammps2cif' 
_symmetry_space_group_name_H-M    'P1' 
_symmetry_Int_Tables_number       1 
_symmetry_cell_setting            triclinic 
loop_ 
_symmetry_equiv_pos_as_xyz 
  x,y,z 
_cell_length_a                    105.0692446 
_cell_length_b                    105.00764542827119 
_cell_length_c                    30.541140827039342 
_cell_angle_alpha                 89.70357121404659 
_cell_angle_beta                  90.42843834206623 
_cell_angle_gamma                 90.37762101913644 
loop_ 
_atom_site_label 
_atom_site_type_symbol 
_atom_site_fract_x 
_atom_site_fract_y 
_atom_site_fract_z 
_atom_site_charge 
O1          O  0.83656775  0.32050684  0.96341895    -0.82000
C2          C  0.81103070  0.32573393  0.11579120     0.97400
O3          O  0.81695105  0.33285969  0.08935787    -0.71100
O4          O  0.83375678  0.33849114  0.02833713    -0.74700
Al5        Al  0.81718782  0.33064446  0.02788238     1.49000
C6          C  0.84442563  0.33473455  0.04239380     0.92600
O7          O  0.84110785  0.29796800  0.06487930    -0.80900
O8          O  0.81760848  0.28864826  0.02673479    -0.74400
Al9        Al  0.83765067  0.31009416  0.01635273     1.90100
O10         O  0.82416205  0.30070527  0.10430809    -0.73500
O11         O  0.79918271  0.30592918  0.01961763    -0.73400
O12         O  0.80542475  0.31578961  0.10161514    -0.79000
O13         O  0.79913419  0.32672565  0.02518192    -0.77200
O14         O  0.82240920  0.31468256  0.03451345    -1.13400
O15         O  0.81743822  0.32915419  0.96671564    -0.72600
C16         C  0.82690796  0.32556019  0.94480879     0.98200
C17         C  0.83473022  0.29556119  0.09924318     0.94600
Al18       Al  0.81234794  0.30359401  0.06073522     1.55600
O19         O  0.84624160  0.32303013  0.04938472    -0.77200
C20         C  0.79339305  0.31636606  0.01678119     0.98700
C21         C  0.82486576  0.28749181  0.99390471     0.93600
O22         O  0.83124549  0.29690498  0.98094893    -0.82500
O23         O  0.83627906  0.31848357  0.45364510    -0.82000
C24         C  0.81578152  0.31995459  0.61799279     0.97400
O25         O  0.82034975  0.32767877  0.59038436    -0.71100
O26         O  0.83503307  0.33520144  0.52514519    -0.74700
Al27       Al  0.81888631  0.32628016  0.52861256     1.49000
C28         C  0.84635671  0.33183773  0.53326231     0.92600
O29         O  0.84575342  0.29486822  0.54606356    -0.80900
O30         O  0.82157742  0.28472036  0.52038703    -0.74400
Al31       Al  0.83976099  0.30731447  0.50309882     1.90100
O32         O  0.83085986  0.29566689  0.59571789    -0.73500
O33         O  0.80157196  0.30045694  0.52583449    -0.73400
O34         O  0.81094994  0.30951223  0.60515827    -0.79000
O35         O  0.80110405  0.32126684  0.53105694    -0.77200
O36         O  0.82514050  0.31063600  0.52983495    -1.13400
O37         O  0.81717970  0.32588666  0.46724478    -0.72600
C38         C  0.82595568  0.32355676  0.44053314     0.98200
C39         C  0.84130475  0.29143860  0.58279763     0.94600
Al40       Al  0.81686742  0.29855317  0.55907274     1.55600
O41         O  0.84901728  0.32014676  0.53424393    -0.77200
C42         C  0.79544612  0.31075933  0.52421598     0.98700
C43         C  0.82762899  0.28427677  0.48467762     0.93600
O44         O  0.83265434  0.29416791  0.46885683    -0.82500
O45         O  0.92263585  0.41284939  0.16948717    -0.82000
C46         C  0.92222907  0.43593434  0.00932758     0.97400
O47         O  0.91439266  0.43049689  0.03450649    -0.71100
O48         O  0.90658060  0.41477146  0.09695367    -0.74700
Al49       Al  0.91489635  0.43120337  0.09642745     1.49000
C50         C  0.91049279  0.40372477  0.08837987     0.92600
O51         O  0.94723774  0.40600227  0.07794155    -0.80900
O52         O  0.95655297  0.42996014  0.11223003    -0.74400
Al53       Al  0.93439261  0.41067477  0.12107093     1.90100
O54         O  0.94691013  0.42226438  0.03259838    -0.73500
O55         O  0.93973761  0.44889447  0.10996540    -0.73400
O56         O  0.93198170  0.44145778  0.02552838    -0.79000
O57         O  0.91920077  0.44923105  0.09679332    -0.77200
O58         O  0.93077919  0.42556051  0.09689292    -1.13400
O59         O  0.91458467  0.43190367  0.15800082    -0.72600
C60         C  0.91686425  0.42265666  0.18343432     0.98200
C61         C  0.95073725  0.41133610  0.04251283     0.94600
Al62       Al  0.94283631  0.43496635  0.07230255     1.55600
O63         O  0.92226007  0.40162156  0.08643480    -0.77200
C64         C  0.92928927  0.45471279  0.10996030     0.98700
C65         C  0.95670746  0.42342167  0.14727443     0.93600
O66         O  0.94680924  0.41762675  0.15892986    -0.82500
O67         O  0.92659835  0.41078578  0.66640152    -0.82000
C68         C  0.92024321  0.43371736  0.50631235     0.97400
O69         O  0.91353128  0.42864099  0.53562060    -0.71100
O70         O  0.90858697  0.41237418  0.59845366    -0.74700
Al71       Al  0.91657708  0.42909249  0.59636288     1.49000
C72         C  0.91241599  0.40161258  0.58550219     0.92600
O73         O  0.94913808  0.40436264  0.56844519    -0.80900
O74         O  0.95822303  0.42835201  0.59396447    -0.74400
Al75       Al  0.93701739  0.40892457  0.61401324     1.90100
O76         O  0.94633400  0.41936862  0.51947516    -0.73500
O77         O  0.94159521  0.44724788  0.59550182    -0.73400
O78         O  0.93092454  0.43869783  0.51629367    -0.79000
O79         O  0.92076230  0.44716429  0.59585691    -0.77200
O80         O  0.93237664  0.42359614  0.58984434    -1.13400
O81         O  0.91849899  0.42982441  0.65758353    -0.72600
C82         C  0.92163211  0.42074192  0.68242834     0.98200
C83         C  0.95184883  0.40936008  0.53168327     0.94600
Al84       Al  0.94336239  0.43279137  0.55894207     1.55600
O85         O  0.92421182  0.39950325  0.58315254    -0.77200
C86         C  0.93125941  0.45288417  0.60242177     0.98700
C87         C  0.95952590  0.42217313  0.62945355     0.93600
O88         O  0.95014027  0.41664559  0.64676595    -0.82500
O89         O  0.54442327  0.41848155  0.46754801    -0.82000
C90         C  0.57352515  0.43463611  0.32189811     0.97400
O91         O  0.56239497  0.43829428  0.33081878    -0.71100
O92         O  0.54629386  0.41939188  0.34078708    -0.74700
Al93       Al  0.55069207  0.43348720  0.37625556     1.49000
C94         C  0.54201618  0.40896002  0.35495197     0.92600
O95         O  0.57028254  0.40058847  0.40603743    -0.80900
O96         O  0.57709974  0.43191865  0.47437162    -0.74400
Al97       Al  0.55760238  0.41045266  0.43507199     1.90100
O98         O  0.58602257  0.41412005  0.41567086    -0.73500
O99         O  0.57415976  0.44848885  0.40825203    -0.73400
O100        O  0.58057830  0.42961846  0.35069116    -0.79000
O101        O  0.55342422  0.44878444  0.40722343    -0.77200
O102        O  0.56208541  0.42483046  0.40775000    -1.13400
O103        O  0.53656737  0.43045608  0.41512436    -0.72600
C104        C  0.53555060  0.42537860  0.45260253     0.98200
C105        C  0.58209406  0.40299218  0.40722865     0.94600
Al106      Al  0.57809799  0.43057221  0.41207272     1.55600
O107        O  0.54548235  0.40487762  0.39207682    -0.77200
C108        C  0.56388330  0.45462956  0.40982731     0.98700
C109        C  0.57416451  0.42276678  0.49952968     0.93600
O110        O  0.56842904  0.41305242  0.48479701    -0.82500
O111        O  0.56941792  0.40981468  0.84701310    -0.82000
C112        C  0.57445740  0.43739515  0.99630947     0.97400
O113        O  0.58165681  0.43142565  0.97064916    -0.71100
O114        O  0.58754271  0.41445481  0.91067908    -0.74700
Al115      Al  0.57916839  0.43042458  0.90914938     1.49000
C116        C  0.58451036  0.40351485  0.92397027     0.92600
O117        O  0.54788817  0.40528947  0.94920174    -0.80900
O118        O  0.53771315  0.42875891  0.90657039    -0.74400
Al119      Al  0.55944100  0.40877059  0.90041756     1.90100
O120        O  0.54864646  0.42310173  0.98627940    -0.73500
O121        O  0.55430692  0.44753674  0.89827353    -0.73400
O122        O  0.56408833  0.44207138  0.98195097    -0.79000
O123        O  0.57498301  0.44824230  0.90525051    -0.77200
O124        O  0.56344119  0.42451126  0.91672419    -1.13400
O125        O  0.57736774  0.42938481  0.84749854    -0.72600
C126        C  0.57417554  0.41937260  0.82692474     0.98200
C127        C  0.54459045  0.41194132  0.98182668     0.94600
Al128      Al  0.55209215  0.43457622  0.94106024     1.55600
O129        O  0.57304275  0.40111723  0.93321100    -0.77200
C130        C  0.56462136  0.45360821  0.89551733     0.98700
C131        C  0.53658705  0.42083762  0.87570943     0.93600
O132        O  0.54571286  0.41387605  0.86530905    -0.82500
O133        O  0.65819953  0.32621468  0.50846259    -0.82000
C134        C  0.68377157  0.32329556  0.35388050     0.97400
O135        O  0.67888679  0.33186244  0.37726549    -0.71100
O136        O  0.66259266  0.34117737  0.43405646    -0.74700
Al137      Al  0.67835190  0.33179234  0.43944870     1.49000
C138        C  0.65158153  0.33783271  0.42129296     0.92600
O139        O  0.65069887  0.30077079  0.42034786    -0.80900
O140        O  0.67364495  0.29079896  0.45942719    -0.74400
Al141      Al  0.65587676  0.31401570  0.46141623     1.90100
O142        O  0.66717815  0.29957878  0.37722030    -0.73500
O143        O  0.69401567  0.30584891  0.45692939    -0.73400
O144        O  0.68771372  0.31310166  0.37156439    -0.79000
O145        O  0.69596866  0.32629946  0.44515421    -0.77200
O146        O  0.67138833  0.31632683  0.43993241    -1.13400
O147        O  0.67804794  0.33251749  0.50126139    -0.72600
C148        C  0.66843623  0.33057657  0.52517259     0.98200
C149        C  0.65606037  0.29621393  0.38690630     0.94600
Al150      Al  0.67998333  0.30339077  0.41826301     1.55600
O151        O  0.64843826  0.32622445  0.42256084    -0.77200
C152        C  0.70070233  0.31585890  0.45817199     0.98700
C153        C  0.66672700  0.29140146  0.49317677     0.93600
O154        O  0.66124986  0.30163536  0.50248056    -0.82500
O155        O  0.65979549  0.31977503  0.00929145    -0.82000
C156        C  0.68219330  0.32449435  0.84927864     0.97400
O157        O  0.67740253  0.33167592  0.87785186    -0.71100
O158        O  0.66277302  0.33801272  0.94419273    -0.74700
Al159      Al  0.67827596  0.32865818  0.93910005     1.49000
C160        C  0.65145587  0.33529221  0.93371235     0.92600
O161        O  0.65025198  0.29907522  0.90943457    -0.80900
O162        O  0.67328914  0.28704559  0.93613838    -0.74400
Al163      Al  0.65628749  0.31007873  0.95634817     1.90100
O164        O  0.66577790  0.30011318  0.86203153    -0.73500
O165        O  0.69385256  0.30233337  0.93928201    -0.73400
O166        O  0.68642436  0.31362159  0.86015968    -0.79000
O167        O  0.69553275  0.32312999  0.93646596    -0.77200
O168        O  0.67125120  0.31338647  0.93262856    -1.13400
O169        O  0.67948174  0.32638228  0.00041168    -0.72600
C170        C  0.67038146  0.32343985  0.02547886     0.98200
C171        C  0.65493395  0.29614237  0.87266620     0.94600
Al172      Al  0.67929394  0.30167998  0.90202200     1.55600
O173        O  0.64823084  0.32388863  0.92716888    -0.77200
C174        C  0.70032624  0.31237341  0.94470271     0.98700
C175        C  0.66688507  0.28625092  0.97109705     0.93600
O176        O  0.66236553  0.29608313  0.98808185    -0.82500
O177        O  0.83008709  0.70176502  0.21508374    -0.82000
C178        C  0.81684588  0.67371721  0.36682049     0.97400
O179        O  0.81245380  0.68443591  0.35498172    -0.71100
O180        O  0.82931181  0.70221472  0.34009010    -0.74700
Al181      Al  0.81558531  0.69569918  0.30662536     1.49000
C182        C  0.83990325  0.70621161  0.32675467     0.92600
O183        O  0.84988596  0.67803202  0.28019339    -0.80900
O184        O  0.81842461  0.66843677  0.21478349    -0.74400
Al185      Al  0.83899921  0.68966932  0.24987565     1.90100
O186        O  0.83742918  0.66137595  0.27241714    -0.73500
O187        O  0.80247177  0.67041908  0.28275285    -0.73400
O188        O  0.82223993  0.66658494  0.33937501    -0.79000
O189        O  0.80030701  0.69095349  0.27746787    -0.77200
O190        O  0.82507616  0.68455803  0.27817900    -1.13400
O191        O  0.81697909  0.70914588  0.26381493    -0.72600
C192        C  0.82214683  0.71001827  0.22669180     0.98200
C193        C  0.84837323  0.66611706  0.27821142     0.94600
Al194      Al  0.82053670  0.66808453  0.27732326     1.55600
O195        O  0.84417419  0.70246302  0.29062656    -0.77200
C196        C  0.79540566  0.68001392  0.27918041     0.98700
C197        C  0.82700841  0.67223877  0.18874797     0.93600
O198        O  0.83661616  0.67828067  0.20281220    -0.82500
O199        O  0.83872334  0.67851573  0.84623546    -0.82000
C200        C  0.81624095  0.67048474  0.68730558     0.97400
O201        O  0.82159014  0.66409228  0.71720901    -0.71100
O202        O  0.83695867  0.65998008  0.78423533    -0.74700
Al203      Al  0.82059293  0.66799486  0.77740143     1.49000
C204        C  0.84804238  0.66340613  0.77311212     0.92600
O205        O  0.84661389  0.69988876  0.74569472    -0.80900
O206        O  0.82207151  0.70927494  0.76946837    -0.74400
Al207      Al  0.84126131  0.68839363  0.79313007     1.90100
O208        O  0.83149938  0.69687848  0.69743019    -0.73500
O209        O  0.80291149  0.69292675  0.76917861    -0.73400
O210        O  0.81211946  0.68160216  0.69435619    -0.79000
O211        O  0.80270519  0.67214485  0.77214748    -0.77200
O212        O  0.82655700  0.68364367  0.76870996    -1.13400
O213        O  0.81926267  0.67084220  0.83801696    -0.72600
C214        C  0.82855234  0.67390887  0.86229308     0.98200
C215        C  0.84195808  0.70187436  0.70781283     0.94600
Al216      Al  0.81784929  0.69433781  0.73544736     1.55600
O217        O  0.85041709  0.67503283  0.76570237    -0.77200
C218        C  0.79683145  0.68261590  0.77289299     0.98700
C219        C  0.82775684  0.71095544  0.80573906     0.93600
O220        O  0.83383856  0.70201270  0.82351702    -0.82500
O221        O  0.92376884  0.58999202  0.14443367    -0.82000
C222        C  0.92362981  0.56500111  0.30104205     0.97400
O223        O  0.91582942  0.57040406  0.27571807    -0.71100
O224        O  0.90839346  0.58709110  0.21758946    -0.74700
Al225      Al  0.91634670  0.57061307  0.21417214     1.49000
C226        C  0.91271406  0.59764915  0.23120334     0.92600
O227        O  0.94955120  0.59549479  0.23403711    -0.80900
O228        O  0.95786770  0.57236301  0.19967354    -0.74400
Al229      Al  0.93599446  0.59137672  0.19235277     1.90100
O230        O  0.94841648  0.57948900  0.28005412    -0.73500
O231        O  0.94109600  0.55301230  0.20099418    -0.73400
O232        O  0.93355937  0.55994353  0.28538686    -0.79000
O233        O  0.92046701  0.55268363  0.21062110    -0.77200
O234        O  0.93227967  0.57626129  0.21499834    -1.13400
O235        O  0.91599522  0.57069119  0.15257212    -0.72600
C236        C  0.91876166  0.58002653  0.12808092     0.98200
C237        C  0.95318707  0.58997463  0.26894294     0.94600
Al238      Al  0.94429526  0.56683931  0.23935108     1.55600
O239        O  0.92449663  0.59987429  0.22971698    -0.77200
C240        C  0.93055066  0.54724933  0.19827109     0.98700
C241        C  0.95794533  0.57928796  0.16537745     0.93600
O242        O  0.94788235  0.58466325  0.15300355    -0.82500
O243        O  0.92556005  0.58603478  0.64341684    -0.82000
C244        C  0.92517596  0.56377035  0.80438744     0.97400
O245        O  0.91731360  0.56851533  0.77750342    -0.71100
O246        O  0.90963901  0.58385674  0.71423628    -0.74700
Al247      Al  0.91828466  0.56760458  0.71603249     1.49000
C248        C  0.91341888  0.59489892  0.72476520     0.92600
O249        O  0.95022910  0.59409984  0.73438095    -0.80900
O250        O  0.95987652  0.57027231  0.70288196    -0.74400
Al251      Al  0.93731263  0.58872397  0.69205611     1.90100
O252        O  0.94994774  0.57836924  0.78171101    -0.73500
O253        O  0.94357199  0.55053830  0.70758218    -0.73400
O254        O  0.93539847  0.55885085  0.79042730    -0.79000
O255        O  0.92297042  0.54970525  0.71730541    -0.77200
O256        O  0.93402528  0.57382632  0.71698081    -1.13400
O257        O  0.91848132  0.56656309  0.65456042    -0.72600
C258        C  0.92091947  0.57565379  0.62870544     0.98200
C259        C  0.95367607  0.58926204  0.77066014     0.94600
Al260      Al  0.94623629  0.56511540  0.74334548     1.55600
O261        O  0.92514848  0.59739768  0.72652585    -0.77200
C262        C  0.93326325  0.54432409  0.70682866     0.98700
C263        C  0.95974188  0.57658400  0.66718923     0.93600
O264        O  0.94966710  0.58192749  0.65508761    -0.82500
O265        O  0.66651306  0.70363865  0.37235576    -0.82000
C266        C  0.67745242  0.67801183  0.21606604     0.97400
O267        O  0.68229279  0.68849395  0.22799295    -0.71100
O268        O  0.66521425  0.70558185  0.24690628    -0.74700
Al269      Al  0.67950514  0.69902897  0.27770887     1.49000
C270        C  0.65497520  0.70953434  0.26314860     0.92600
O271        O  0.64561882  0.68075559  0.30799362    -0.80900
O272        O  0.67781936  0.67034538  0.36583515    -0.74400
Al273      Al  0.65700103  0.69197675  0.33812674     1.90100
O274        O  0.65803291  0.66415076  0.31061095    -0.73500
O275        O  0.69275761  0.67368129  0.29718860    -0.73400
O276        O  0.67226535  0.67046698  0.24298018    -0.79000
O277        O  0.69517021  0.69419689  0.30486658    -0.77200
O278        O  0.67041595  0.68741503  0.30661933    -1.13400
O279        O  0.67838773  0.71193375  0.32098715    -0.72600
C280        C  0.67382238  0.71235858  0.35894274     0.98200
C281        C  0.64708967  0.66885636  0.30604563     0.94600
Al282      Al  0.67482847  0.67102571  0.30439329     1.55600
O283        O  0.65137145  0.70531301  0.29974061    -0.77200
C284        C  0.69989815  0.68322666  0.30291204     0.98700
C285        C  0.66988990  0.67373642  0.39433069     0.93600
O286        O  0.66003958  0.67994471  0.38392005    -0.82500
O287        O  0.65935335  0.67655810  0.73366273    -0.82000
C288        C  0.68383765  0.67450106  0.89268264     0.97400
O289        O  0.67793914  0.66694331  0.86758389    -0.71100
O290        O  0.66156036  0.65966401  0.80594780    -0.74700
Al291      Al  0.67796685  0.66828977  0.80577008     1.49000
C292        C  0.65042658  0.66332450  0.81486522     0.92600
O293        O  0.65212317  0.70016513  0.82838914    -0.80900
O294        O  0.67537246  0.71008859  0.79774894    -0.74400
Al295      Al  0.65701918  0.68771915  0.78363598     1.90100
O296        O  0.66806866  0.69905402  0.87488712    -0.73500
O297        O  0.69485146  0.69397643  0.79608390    -0.73400
O298        O  0.68818515  0.68493856  0.87804268    -0.79000
O299        O  0.69589118  0.67327900  0.80405160    -0.77200
O300        O  0.67192539  0.68403658  0.80772085    -1.13400
O301        O  0.67837359  0.66849913  0.74451877    -0.72600
C302        C  0.66929771  0.67120442  0.71909474     0.98200
C303        C  0.65734142  0.70340486  0.86443626     0.94600
Al304      Al  0.68095450  0.69603027  0.83430529     1.55600
O305        O  0.64814424  0.67509177  0.81629988    -0.77200
C306        C  0.70118480  0.68384416  0.79445404     0.98700
C307        C  0.66890643  0.71064634  0.76268283     0.93600
O308        O  0.66386402  0.70069320  0.74773029    -0.82500
O309        O  0.56802294  0.59182363  0.41923719    -0.82000
C310        C  0.56895788  0.56874042  0.26038461     0.97400
O311        O  0.57671193  0.57446366  0.28535291    -0.71100
O312        O  0.58380526  0.59029022  0.34760076    -0.74700
Al313      Al  0.57614362  0.57371691  0.34716878     1.49000
C314        C  0.57970888  0.60120323  0.33782780     0.92600
O315        O  0.54265083  0.59779822  0.32808366    -0.80900
O316        O  0.53490626  0.57325316  0.36180448    -0.74400
Al317      Al  0.55607224  0.59363308  0.37052273     1.90100
O318        O  0.54325629  0.58178462  0.28226307    -0.73500
O319        O  0.55217835  0.55493853  0.35952859    -0.73400
O320        O  0.55926807  0.56311858  0.27611339    -0.79000
O321        O  0.57264628  0.55563470  0.34741469    -0.77200
O322        O  0.56008700  0.57883831  0.34666916    -1.13400
O323        O  0.57621441  0.57288474  0.40862310    -0.72600
C324        C  0.57330926  0.58179343  0.43418936     0.98200
C325        C  0.53872482  0.59232144  0.29347112     0.94600
Al326      Al  0.54834719  0.56898679  0.32211601     1.55600
O327        O  0.56786955  0.60308594  0.33548385    -0.77200
C328        C  0.56283375  0.54949498  0.35898040     0.98700
C329        C  0.53457789  0.57995465  0.39601752     0.93600
O330        O  0.54410196  0.58630534  0.40828691    -0.82500
O331        O  0.56209975  0.59050773  0.91863253    -0.82000
C332        C  0.56806682  0.56831269  0.75939968     0.97400
O333        O  0.57496270  0.57371012  0.78789255    -0.71100
O334        O  0.58077086  0.58877630  0.85424345    -0.74700
Al335      Al  0.57235773  0.57262526  0.84884911     1.49000
C336        C  0.57755555  0.59984719  0.84297027     0.92600
O337        O  0.54119657  0.59830786  0.81621032    -0.80900
O338        O  0.53053826  0.57367866  0.84680492    -0.74400
Al339      Al  0.55235687  0.59330262  0.86474866     1.90100
O340        O  0.54245166  0.58177607  0.77292373    -0.73500
O341        O  0.54756705  0.55441489  0.85044716    -0.73400
O342        O  0.55772724  0.56288962  0.77073858    -0.79000
O343        O  0.56825829  0.55480197  0.84585328    -0.77200
O344        O  0.55657006  0.57831838  0.84256619    -1.13400
O345        O  0.57044987  0.57144713  0.90941137    -0.72600
C346        C  0.56689741  0.58029451  0.93424013     0.98200
C347        C  0.53843286  0.59274770  0.78053360     0.94600
Al348      Al  0.54544352  0.56889753  0.81303520     1.55600
O349        O  0.56597853  0.60230571  0.83615142    -0.77200
C350        C  0.55806236  0.54865167  0.85248554     0.98700
C351        C  0.52898587  0.58089498  0.87944104     0.93600
O352        O  0.53833341  0.58676903  0.89580191    -0.82500
O353        O  0.04642959  0.41518286  0.40499814    -0.82000
C354        C  0.07231105  0.43460337  0.26008529     0.97400
O355        O  0.06253039  0.43995830  0.27553888    -0.71100
O356        O  0.04738175  0.42060296  0.27862997    -0.74700
Al357      Al  0.05130311  0.43316611  0.31985944     1.49000
C358        C  0.04210234  0.41033625  0.28940302     0.92600
O359        O  0.07113820  0.39950195  0.33261991    -0.80900
O360        O  0.07852336  0.42935271  0.40905176    -0.74400
Al361      Al  0.05888586  0.40841954  0.36759293     1.90100
O362        O  0.08687783  0.41255855  0.34684682    -0.73500
O363        O  0.07498864  0.44709932  0.34905739    -0.73400
O364        O  0.07995215  0.42897004  0.28561097    -0.79000
O365        O  0.05435886  0.44689030  0.35875214    -0.77200
O366        O  0.06295940  0.42351631  0.34521851    -1.13400
O367        O  0.03733677  0.42798222  0.35768823    -0.72600
C368        C  0.03676253  0.42118903  0.39204913     0.98200
C369        C  0.08298316  0.40168808  0.33493804     0.94600
Al370      Al  0.07892086  0.42907102  0.34747905     1.55600
O371        O  0.04566496  0.40444740  0.32383324    -0.77200
C372        C  0.06490586  0.45266273  0.36068276     0.98700
C373        C  0.07532687  0.42019343  0.43364457     0.93600
O374        O  0.07046052  0.41009076  0.41742419    -0.82500
O375        O  0.04206279  0.41594747  0.90199002    -0.82000
C376        C  0.06918038  0.43443301  0.75889684     0.97400
O377        O  0.05919242  0.43988586  0.77244098    -0.71100
O378        O  0.04374281  0.42097305  0.77686799    -0.74700
Al379      Al  0.04756053  0.43356453  0.81698954     1.49000
C380        C  0.03970304  0.40997232  0.78512678     0.92600
O381        O  0.06720277  0.40013295  0.83449569    -0.80900
O382        O  0.07417056  0.43023204  0.90862295    -0.74400
Al383      Al  0.05482139  0.40908727  0.86684779     1.90100
O384        O  0.08291485  0.41304380  0.84905411    -0.73500
O385        O  0.07122336  0.44736102  0.84636629    -0.73400
O386        O  0.07650442  0.42883753  0.78568805    -0.79000
O387        O  0.05055984  0.44755240  0.85482439    -0.77200
O388        O  0.05903082  0.42400341  0.84385945    -1.13400
O389        O  0.03317323  0.42855202  0.85391650    -0.72600
C390        C  0.03237494  0.42155362  0.88781905     0.98200
C391        C  0.07897499  0.40221564  0.83706255     0.94600
Al392      Al  0.07500799  0.42946572  0.84717847     1.55600
O393        O  0.04256536  0.40447626  0.82095706    -0.77200
C394        C  0.06119174  0.45318319  0.85663981     0.98700
C395        C  0.07074117  0.42126287  0.93380270     0.93600
O396        O  0.06576713  0.41118530  0.91802546    -0.82500
O397        O  0.16368599  0.32563846  0.36058186    -0.82000
C398        C  0.18577583  0.33167444  0.20052341     0.97400
O399        O  0.17979658  0.33841796  0.22765120    -0.71100
O400        O  0.16343927  0.34253328  0.29201891    -0.74700
Al401      Al  0.18080640  0.33651839  0.28973588     1.49000
C402        C  0.15274360  0.33744640  0.28327537     0.92600
O403        O  0.15923427  0.30096922  0.27029423    -0.80900
O404        O  0.18487665  0.29547433  0.29764612    -0.74400
Al405      Al  0.16281724  0.31419628  0.31216343     1.90100
O406        O  0.17391173  0.30378382  0.22067902    -0.73500
O407        O  0.20145957  0.31397467  0.29229374    -0.73400
O408        O  0.19115235  0.32148507  0.21274454    -0.79000
O409        O  0.19917508  0.33456329  0.28715788    -0.77200
O410        O  0.17686314  0.32005131  0.28661147    -1.13400
O411        O  0.18200372  0.33568094  0.35247622    -0.72600
C412        C  0.17287656  0.33198316  0.37646313     0.98200
C413        C  0.16414745  0.29805682  0.23410973     0.94600
Al414      Al  0.18702063  0.30956846  0.25825327     1.55600
O415        O  0.15192364  0.32546506  0.27970278    -0.77200
C416        C  0.20626694  0.32495532  0.29199385     0.98700
C417        C  0.17966118  0.29427591  0.33462350     0.93600
O418        O  0.17195037  0.30253791  0.34779419    -0.82500
O419        O  0.15675590  0.29598683  0.73508104    -0.82000
C420        C  0.17753450  0.32293851  0.87796486     0.97400
O421        O  0.18082184  0.31186673  0.86614634    -0.71100
O422        O  0.16118567  0.29662950  0.85938053    -0.74700
Al423      Al  0.17466164  0.30068708  0.82093598     1.49000
C424        C  0.14988563  0.29382738  0.84920028     0.92600
O425        O  0.14253623  0.32271682  0.80008829    -0.80900
O426        O  0.17323909  0.32757127  0.72749368    -0.74400
Al427      Al  0.15082443  0.30955775  0.76891482     1.90100
O428        O  0.15663413  0.33747882  0.78642710    -0.73500
O429        O  0.18982490  0.32377898  0.79122470    -0.73400
O430        O  0.17215769  0.33045345  0.85119940    -0.79000
O431        O  0.18971573  0.30311078  0.78662833    -0.77200
O432        O  0.16594445  0.31279454  0.79302872    -1.13400
O433        O  0.16972916  0.28696579  0.78215845    -0.72600
C434        C  0.16262038  0.28633522  0.74857214     0.98200
C435        C  0.14542592  0.33430038  0.79609053     0.94600
Al436      Al  0.17241395  0.32850190  0.78934383     1.55600
O437        O  0.14508770  0.29794235  0.81379174    -0.77200
C438        C  0.19576482  0.31354815  0.78623684     0.98700
C439        C  0.16402880  0.32484607  0.70223936     0.93600
O440        O  0.15381699  0.32011320  0.71755306    -0.82500
O441        O  0.16828031  0.70071483  0.57082259    -0.82000
C442        C  0.17873632  0.67214909  0.42178303     0.97400
O443        O  0.18492546  0.68195163  0.43316906    -0.71100
O444        O  0.16763049  0.69920613  0.44334229    -0.74700
Al445      Al  0.18141439  0.69388718  0.47835221     1.49000
C446        C  0.15828201  0.70509062  0.45849930     0.92600
O447        O  0.14704420  0.67780692  0.50748834    -0.80900
O448        O  0.17818138  0.66791274  0.57501111    -0.74400
Al449      Al  0.15838025  0.68906959  0.53771768     1.90100
O450        O  0.15871094  0.66081098  0.51887458    -0.73500
O451        O  0.19420537  0.66923621  0.50744963    -0.73400
O452        O  0.17354952  0.66512907  0.45054525    -0.79000
O453        O  0.19624454  0.68994371  0.51024198    -0.77200
O454        O  0.17188100  0.68335268  0.50958748    -1.13400
O455        O  0.17983719  0.70801337  0.51652821    -0.72600
C456        C  0.17559889  0.70906486  0.55485045     0.98200
C457        C  0.14807013  0.66584076  0.51025733     0.94600
Al458      Al  0.17588273  0.66697420  0.51266980     1.55600
O459        O  0.15409108  0.70227850  0.49606685    -0.77200
C460        C  0.20105945  0.67906171  0.51308005     0.98700
C461        C  0.16976602  0.67182684  0.60117292     0.93600
O462        O  0.16006300  0.67756963  0.58634726    -0.82500
O463        O  0.15338954  0.70691572  0.07416669    -0.82000
C464        C  0.17474273  0.68405533  0.92613654     0.97400
O465        O  0.17823250  0.69472941  0.94142824    -0.71100
O466        O  0.15802092  0.70903694  0.94955976    -0.74700
Al467      Al  0.17138010  0.70468459  0.98868997     1.49000
C468        C  0.14669796  0.71158570  0.95963901     0.92600
O469        O  0.13925025  0.68167079  0.00086951    -0.80900
O470        O  0.16966678  0.67579843  0.07424735    -0.74400
Al471      Al  0.14743512  0.69423686  0.03619708     1.90100
O472        O  0.15363659  0.66709265  0.01011601    -0.73500
O473        O  0.18683786  0.68148178  0.01612068    -0.73400
O474        O  0.16953777  0.67587106  0.95080649    -0.79000
O475        O  0.18596158  0.70204081  0.02560018    -0.77200
O476        O  0.16266486  0.69184367  0.01247752    -1.13400
O477        O  0.16601031  0.71731661  0.02960698    -0.72600
C478        C  0.15930702  0.71689563  0.06371622     0.98200
C479        C  0.14237789  0.67012953  0.00023742     0.94600
Al480      Al  0.16934658  0.67634516  0.01269018     1.55600
O481        O  0.14184261  0.70680000  0.99381763    -0.77200
C482        C  0.19201443  0.69173389  0.02845976     0.98700
C483        C  0.16038470  0.67754383  0.09936624     0.93600
O484        O  0.15020671  0.68256324  0.08485927    -0.82500
O485        O  0.04726645  0.58088635  0.39225455    -0.82000
C486        C  0.07274537  0.56473530  0.54386698     0.97400
O487        O  0.06283090  0.55929829  0.52889384    -0.71100
O488        O  0.04748309  0.57833859  0.52032662    -0.74700
Al489      Al  0.05172133  0.56513048  0.48219533     1.49000
C490        C  0.04211480  0.58826913  0.50682257     0.92600
O491        O  0.07052685  0.59899021  0.46388958    -0.80900
O492        O  0.07969448  0.56857726  0.39482648    -0.74400
Al493      Al  0.05902665  0.58905780  0.42952369     1.90100
O494        O  0.08684139  0.58638650  0.45551952    -0.73500
O495        O  0.07571657  0.55145767  0.45629381    -0.73400
O496        O  0.08021956  0.57045389  0.51812039    -0.79000
O497        O  0.05504903  0.55090336  0.44629069    -0.77200
O498        O  0.06335290  0.57461884  0.45580534    -1.13400
O499        O  0.03780711  0.56939190  0.44246649    -0.72600
C500        C  0.03741206  0.57547188  0.40654559     0.98200
C501        C  0.08240846  0.59728767  0.46349663     0.94600
Al502      Al  0.07941442  0.56959051  0.45626732     1.55600
O503        O  0.04540192  0.59334138  0.47069016    -0.77200
C504        C  0.06570492  0.54545658  0.44516516     0.98700
C505        C  0.07707312  0.57750511  0.36860283     0.93600
O506        O  0.07114939  0.58727096  0.38198067    -0.82500
O507        O  0.04464890  0.58019674  0.90014652    -0.82000
C508        C  0.07209960  0.56345225  0.04675640     0.97400
O509        O  0.06194886  0.55817566  0.03297246    -0.71100
O510        O  0.04614117  0.57720926  0.02731879    -0.74700
Al511      Al  0.05022086  0.56410388  0.98810984     1.49000
C512        C  0.04135951  0.58762186  0.01516047     0.92600
O513        O  0.06931488  0.59795245  0.96689692    -0.80900
O514        O  0.07702564  0.56739393  0.89678194    -0.74400
Al515      Al  0.05712793  0.58812736  0.93507446     1.90100
O516        O  0.08528643  0.58514937  0.95576174    -0.73500
O517        O  0.07398252  0.55055517  0.95942980    -0.73400
O518        O  0.07924617  0.56931255  0.02014716    -0.79000
O519        O  0.05325729  0.55001435  0.95090163    -0.77200
O520        O  0.06161581  0.57366066  0.96056107    -1.13400
O521        O  0.03577652  0.56848802  0.95095957    -0.72600
C522        C  0.03493664  0.57492315  0.91593709     0.98200
C523        C  0.08112242  0.59613199  0.96374350     0.94600
Al524      Al  0.07766090  0.56851128  0.95837911     1.55600
O525        O  0.04450395  0.59264940  0.97885225    -0.77200
C526        C  0.06395595  0.54469055  0.94813431     0.98700
C527        C  0.07383909  0.57621965  0.87086148     0.93600
O528        O  0.06829578  0.58606896  0.88529385    -0.82500
O529        O  0.32886007  0.67755588  0.13299336    -0.82000
C530        C  0.30435996  0.67379089  0.97592555     0.97400
O531        O  0.30990222  0.66638769  0.00262768    -0.71100
O532        O  0.32635038  0.66052776  0.06561534    -0.74700
Al533      Al  0.30973654  0.66819020  0.06498452     1.49000
C534        C  0.33723275  0.66451776  0.05425614     0.92600
O535        O  0.33418763  0.70129072  0.03908689    -0.80900
O536        O  0.30995451  0.70956763  0.07010696    -0.74400
Al537      Al  0.33012400  0.68872467  0.08327794     1.90100
O538        O  0.31832679  0.69938656  0.99258260    -0.73500
O539        O  0.29157415  0.69272815  0.07061251    -0.73400
O540        O  0.29918502  0.68383080  0.98983755    -0.79000
O541        O  0.29156052  0.67199517  0.06556777    -0.77200
O542        O  0.31515115  0.68418406  0.06069268    -1.13400
O543        O  0.30964002  0.66909705  0.12742350    -0.72600
C544        C  0.31927251  0.67221534  0.15035478     0.98200
C545        C  0.32890265  0.70412345  0.00302526     0.94600
Al546      Al  0.30554233  0.69546586  0.03310327     1.55600
O547        O  0.33925570  0.67634404  0.05000820    -0.77200
C548        C  0.28571644  0.68227843  0.07316573     0.98700
C549        C  0.31585492  0.71042783  0.10622275     0.93600
O550        O  0.32283800  0.70143203  0.11925057    -0.82500
O551        O  0.33243139  0.70532637  0.50606875    -0.82000
C552        C  0.31484922  0.67742914  0.65207349     0.97400
O553        O  0.31066003  0.68816809  0.63969963    -0.71100
O554        O  0.32979817  0.70448558  0.63322050    -0.74700
Al555      Al  0.31636317  0.69976285  0.59445433     1.49000
C556        C  0.34031084  0.70897892  0.62047521     0.92600
O557        O  0.35004866  0.68108922  0.57363324    -0.80900
O558        O  0.31963619  0.67262138  0.50286990    -0.74400
Al559      Al  0.34022679  0.69291107  0.54145994     1.90100
O560        O  0.33737724  0.66471267  0.56414857    -0.73500
O561        O  0.30267820  0.67567267  0.56446899    -0.73400
O562        O  0.32110750  0.67048688  0.62651127    -0.79000
O563        O  0.30175241  0.69638260  0.55879253    -0.77200
O564        O  0.32577584  0.68832762  0.56698073    -1.13400
O565        O  0.32042338  0.71395972  0.55587188    -0.72600
C566        C  0.32677031  0.71485591  0.52087712     0.98200
C567        C  0.34830771  0.66924542  0.57235069     0.94600
Al568      Al  0.32063633  0.67216381  0.56470654     1.55600
O569        O  0.34495958  0.70549002  0.58438926    -0.77200
C570        C  0.29634615  0.68563616  0.55642161     0.98700
C571        C  0.32843629  0.67597166  0.47735014     0.93600
O572        O  0.33822760  0.68169369  0.49202199    -0.82500
O573        O  0.44570736  0.58916925  0.14960144    -0.82000
C574        C  0.41966867  0.56699722  0.01033566     0.97400
O575        O  0.42944929  0.56195289  0.02730594    -0.71100
O576        O  0.44466485  0.58118939  0.02701698    -0.74700
Al577      Al  0.44062089  0.56935350  0.07049097     1.49000
C578        C  0.44816833  0.59251107  0.03236683     0.92600
O579        O  0.41976354  0.60279404  0.07738041    -0.80900
O580        O  0.41329245  0.57402348  0.15852471    -0.74400
Al581      Al  0.43255144  0.59473048  0.11227604     1.90100
O582        O  0.40434523  0.58954036  0.09249434    -0.73500
O583        O  0.41715128  0.55524949  0.10182461    -0.73400
O584        O  0.41173777  0.57258101  0.03450546    -0.79000
O585        O  0.43777352  0.55597654  0.11129468    -0.77200
O586        O  0.42876556  0.57918668  0.09345137    -1.13400
O587        O  0.45456064  0.57507041  0.10764415    -0.72600
C588        C  0.45518555  0.58256478  0.13988219     0.98200
C589        C  0.40802841  0.60037901  0.07940540     0.94600
Al590      Al  0.41285091  0.57329484  0.09666260     1.55600
O591        O  0.44463874  0.59871646  0.06569354    -0.77200
C592        C  0.42748073  0.54975272  0.11202980     0.98700
C593        C  0.41664512  0.58353243  0.18137814     0.93600
O594        O  0.42171315  0.59328655  0.16350213    -0.82500
O595        O  0.44893048  0.58093352  0.65072133    -0.82000
C596        C  0.41868243  0.56791399  0.50676880     0.97400
O597        O  0.42792717  0.56121888  0.52027649    -0.71100
O598        O  0.44493754  0.57907219  0.52326467    -0.74700
Al599      Al  0.44066761  0.56625498  0.56287885     1.49000
C600        C  0.45097812  0.58899490  0.53360872     0.92600
O601        O  0.42607751  0.60169376  0.58781961    -0.80900
O602        O  0.41529148  0.57192304  0.65709759    -0.74400
Al603      Al  0.43720956  0.59042549  0.61743741     1.90100
O604        O  0.40872436  0.59045389  0.59790607    -0.73500
O605        O  0.41616191  0.55483137  0.59515334    -0.73400
O606        O  0.41240063  0.57431968  0.53387516    -0.79000
O607        O  0.43686695  0.55245375  0.60059752    -0.77200
O608        O  0.43073803  0.57667006  0.59219513    -1.13400
O609        O  0.45603309  0.56935128  0.59717290    -0.72600
C610        C  0.45779302  0.57487541  0.63345703     0.98200
C611        C  0.41414121  0.60095956  0.58963547     0.94600
Al612      Al  0.41430964  0.57315382  0.59571335     1.55600
O613        O  0.44951912  0.59388484  0.57120520    -0.77200
C614        C  0.42573663  0.54803309  0.60468460     0.98700
C615        C  0.42018752  0.57987401  0.68314379     0.93600
O616        O  0.42654513  0.58928575  0.66852883    -0.82500
O617        O  0.33849444  0.32166043  0.14926477    -0.82000
C618        C  0.32371537  0.32334318  0.32310743     0.97400
O619        O  0.32907448  0.33084198  0.29625721    -0.71100
O620        O  0.34272682  0.33673246  0.22542572    -0.74700
Al621      Al  0.32575764  0.33049713  0.23428219     1.49000
C622        C  0.35357045  0.33162683  0.22398461     0.92600
O623        O  0.34796073  0.29509984  0.22922836    -0.80900
O624        O  0.32078233  0.28973114  0.21635534    -0.74400
Al625      Al  0.34196229  0.30909621  0.19332563     1.90100
O626        O  0.33581102  0.29567862  0.28690311    -0.73500
O627        O  0.30490752  0.30774553  0.23758051    -0.73400
O628        O  0.31933505  0.31278729  0.31013092    -0.79000
O629        O  0.30792571  0.32820877  0.24437990    -0.77200
O630        O  0.32964569  0.31401842  0.22952258    -1.13400
O631        O  0.32165587  0.33167160  0.17344829    -0.72600
C632        C  0.32878324  0.32842692  0.14241490     0.98200
C633        C  0.34518194  0.29106184  0.26706411     0.94600
Al634      Al  0.32099162  0.30249854  0.26012355     1.55600
O635        O  0.35458695  0.31969791  0.22024880    -0.77200
C636        C  0.30046061  0.31880993  0.24084957     0.98700
C637        C  0.32377236  0.28951423  0.17659131     0.93600
O638        O  0.33090982  0.29810512  0.16111517    -0.82500
O639        O  0.32672861  0.29765045  0.77775387    -0.82000
C640        C  0.30841057  0.32888364  0.64447851     0.97400
O641        O  0.30265487  0.31876597  0.65586433    -0.71100
O642        O  0.32161534  0.30301443  0.65257143    -0.74700
Al643      Al  0.30928951  0.30581101  0.69515760     1.49000
C644        C  0.33199872  0.29756349  0.66050180     0.92600
O645        O  0.34362662  0.32348948  0.71517896    -0.80900
O646        O  0.31482148  0.33008465  0.79471859    -0.74400
Al647      Al  0.33425070  0.31084810  0.74532820     1.90100
O648        O  0.33158218  0.33955693  0.73323240    -0.73500
O649        O  0.29649638  0.32859285  0.73492508    -0.73400
O650        O  0.31450611  0.33535807  0.67232434    -0.79000
O651        O  0.29598370  0.30769246  0.73556105    -0.77200
O652        O  0.31943695  0.31624713  0.72476749    -1.13400
O653        O  0.31404462  0.29043103  0.72627037    -0.72600
C654        C  0.32081168  0.28858036  0.76008150     0.98200
C655        C  0.34208460  0.33527750  0.71985279     0.94600
Al656      Al  0.31466567  0.33222363  0.73318889     1.55600
O657        O  0.33768872  0.29937587  0.69678901    -0.77200
C658        C  0.29062022  0.31819527  0.74193868     0.98700
C659        C  0.32414366  0.32608382  0.81719665     0.93600
O660        O  0.33347384  0.32075433  0.79864029    -0.82500
O661        O  0.45308090  0.41988110  0.11797801    -0.82000
C662        C  0.42543983  0.43361750  0.26685042     0.97400
O663        O  0.43595427  0.43870267  0.25616905    -0.71100
O664        O  0.45238716  0.42050420  0.24491096    -0.74700
Al665      Al  0.44750747  0.43449776  0.20945883     1.49000
C666        C  0.45707687  0.41032757  0.23074294     0.92600
O667        O  0.42906495  0.40082768  0.18285558    -0.80900
O668        O  0.42025302  0.43189118  0.11518862    -0.74400
Al669      Al  0.44080599  0.41125842  0.15170600     1.90100
O670        O  0.41265569  0.41325076  0.17335593    -0.73500
O671        O  0.42318212  0.44826075  0.17974803    -0.73400
O672        O  0.41832066  0.42864920  0.23811034    -0.79000
O673        O  0.44396240  0.44994277  0.17823702    -0.77200
O674        O  0.43616156  0.42535817  0.17915771    -1.13400
O675        O  0.46171939  0.43148311  0.16997993    -0.72600
C676        C  0.46264438  0.42546813  0.13419996     0.98200
C677        C  0.41718377  0.40237604  0.18177887     0.94600
Al678      Al  0.41994644  0.43016279  0.17685314     1.55600
O679        O  0.45362451  0.40618723  0.19374520    -0.77200
C680        C  0.43310551  0.45500729  0.17530559     0.98700
C681        C  0.42314934  0.42313372  0.08901173     0.93600
O682        O  0.42932871  0.41351664  0.10248301    -0.82500
O683        O  0.44583753  0.41999971  0.61808613    -0.82000
C684        C  0.41736675  0.43490652  0.76426848     0.97400
O685        O  0.42694774  0.44105835  0.75022468    -0.71100
O686        O  0.44448199  0.42430374  0.74413343    -0.74700
Al687      Al  0.43875861  0.43645109  0.70461697     1.49000
C688        C  0.45061083  0.41463564  0.73374897     0.92600
O689        O  0.42296324  0.40060272  0.68967641    -0.80900
O690        O  0.41220781  0.42964810  0.61440293    -0.74400
Al691      Al  0.43418196  0.41127560  0.65542141     1.90100
O692        O  0.40591153  0.41187204  0.67616753    -0.73500
O693        O  0.41349406  0.44735059  0.67545602    -0.73400
O694        O  0.41055356  0.42848783  0.73808681    -0.79000
O695        O  0.43397365  0.44993921  0.66757727    -0.77200
O696        O  0.42833023  0.42556086  0.67862461    -1.13400
O697        O  0.45302713  0.43391220  0.66552500    -0.72600
C698        C  0.45420252  0.42799188  0.62974443     0.98200
C699        C  0.41094792  0.40160024  0.68857282     0.94600
Al700      Al  0.41181992  0.42906436  0.67615844     1.55600
O701        O  0.44769835  0.40864146  0.69900073    -0.77200
C702        C  0.42289067  0.45435567  0.66596759     0.98700
C703        C  0.41615016  0.42084842  0.59001685     0.93600
O704        O  0.42244443  0.41161669  0.60621195    -0.82500
O705        O  0.65447472  0.79516024  0.01484482    -0.82000
C706        C  0.67305088  0.82110126  0.16414503     0.97400
O707        O  0.67727744  0.81048144  0.15068623    -0.71100
O708        O  0.65837113  0.79447747  0.13966252    -0.74700
Al709      Al  0.67176247  0.79957287  0.10261408     1.49000
C710        C  0.64722011  0.79128638  0.12881049     0.92600
O711        O  0.63857823  0.82021299  0.08371283    -0.80900
O712        O  0.66952138  0.82745426  0.01457418    -0.74400
Al713      Al  0.64770633  0.80792109  0.05080161     1.90100
O714        O  0.65211942  0.83573340  0.07322185    -0.73500
O715        O  0.68614760  0.82373461  0.07822031    -0.73400
O716        O  0.66744745  0.82852800  0.13777621    -0.79000
O717        O  0.68668342  0.80319409  0.06828153    -0.77200
O718        O  0.66255060  0.81154464  0.07644508    -1.13400
O719        O  0.66753887  0.78609146  0.06143239    -0.72600
C720        C  0.66066946  0.78557854  0.02716439     0.98200
C721        C  0.64101430  0.83194152  0.08173660     0.94600
Al722      Al  0.66830919  0.82752507  0.07601432     1.55600
O723        O  0.64234044  0.79538761  0.09348445    -0.77200
C724        C  0.69230028  0.81386897  0.06880002     0.98700
C725        C  0.66060497  0.82477807  0.98807057     0.93600
O726        O  0.65048932  0.81940098  0.00161634    -0.82500
O727        O  0.66781498  0.80177916  0.51903012    -0.82000
C728        C  0.68152984  0.82849007  0.66929780     0.97400
O729        O  0.68687194  0.81825606  0.65795832    -0.71100
O730        O  0.66799050  0.80258794  0.64726061    -0.74700
Al731      Al  0.68205265  0.80678748  0.61191544     1.49000
C732        C  0.65846369  0.79696980  0.63142559     0.92600
O733        O  0.64905694  0.82524763  0.58560214    -0.80900
O734        O  0.68026731  0.83346931  0.51643594    -0.74400
Al735      Al  0.65914332  0.81356112  0.55366750     1.90100
O736        O  0.66193022  0.84148048  0.57475405    -0.73500
O737        O  0.69686115  0.83049257  0.58229967    -0.73400
O738        O  0.67718122  0.83594293  0.64040659    -0.79000
O739        O  0.69699079  0.80966622  0.58011552    -0.77200
O740        O  0.67333404  0.81815029  0.58139770    -1.13400
O741        O  0.67898863  0.79297705  0.57174365    -0.72600
C742        C  0.67453613  0.79274714  0.53304545     0.98200
C743        C  0.65090567  0.83713679  0.58311523     0.94600
Al744      Al  0.67870718  0.83417473  0.57879826     1.55600
O745        O  0.65424077  0.80013027  0.59405930    -0.77200
C746        C  0.70265118  0.82014263  0.57569158     0.98700
C747        C  0.67115950  0.83056852  0.49083835     0.93600
O748        O  0.66121975  0.82530621  0.50580174    -0.82500
O749        O  0.56868307  0.91652397  0.01915212    -0.82000
C750        C  0.57736406  0.93826160  0.17933513     0.97400
O751        O  0.58360744  0.93194959  0.15184299    -0.71100
O752        O  0.58652047  0.91528217  0.08828506    -0.74700
Al753      Al  0.58116438  0.93292272  0.08992408     1.49000
C754        C  0.58078635  0.90491369  0.09696439     0.92600
O755        O  0.54540501  0.91239865  0.11303715    -0.80900
O756        O  0.53994134  0.93769585  0.08997407    -0.74400
Al757      Al  0.55788114  0.91589409  0.06892213     1.90100
O758        O  0.54971134  0.92650245  0.16358990    -0.73500
O759        O  0.55875743  0.95400007  0.09020418    -0.73400
O760        O  0.56739068  0.94406758  0.16802956    -0.79000
O761        O  0.57943435  0.95150065  0.09118827    -0.77200
O762        O  0.56461671  0.92951266  0.09459436    -1.13400
O763        O  0.58013113  0.93393573  0.02739574    -0.72600
C764        C  0.57557209  0.92526565  0.00314067     0.98200
C765        C  0.54368921  0.91676086  0.15101266     0.94600
Al766      Al  0.55479904  0.93973829  0.12532163     1.55600
O767        O  0.56882229  0.90456959  0.09905650    -0.77200
C768        C  0.56978154  0.95867047  0.08748149     0.98700
C769        C  0.53802266  0.93299808  0.05258896     0.93600
O770        O  0.54609950  0.92571168  0.03571949    -0.82500
O771        O  0.54381166  0.91440230  0.65056764    -0.82000
C772        C  0.56851281  0.93513075  0.50251844     0.97400
O773        O  0.55749523  0.93828935  0.51524296    -0.71100
O774        O  0.54319043  0.91813260  0.52470046    -0.74700
Al775      Al  0.54698239  0.93181042  0.56223043     1.49000
C776        C  0.53996549  0.90713221  0.53679075     0.92600
O777        O  0.56962181  0.90013774  0.58126477    -0.80900
O778        O  0.57493108  0.93116996  0.65235901    -0.74400
Al779      Al  0.55680403  0.90838758  0.61433247     1.90100
O780        O  0.58419057  0.91466942  0.59202138    -0.73500
O781        O  0.56979259  0.94802957  0.59048327    -0.73400
O782        O  0.57626498  0.93012027  0.52909120    -0.79000
O783        O  0.54911583  0.94679067  0.59619441    -0.77200
O784        O  0.55951080  0.92353705  0.58920851    -1.13400
O785        O  0.53388383  0.92666368  0.60306161    -0.72600
C786        C  0.53397998  0.92020061  0.63820409     0.98200
C787        C  0.58120360  0.90320275  0.58494464     0.94600
Al788      Al  0.57501716  0.93043253  0.59072061     1.55600
O789        O  0.54433991  0.90249220  0.57210703    -0.77200
C790        C  0.55924780  0.95324292  0.59818950     0.98700
C791        C  0.57333193  0.92165866  0.67724082     0.93600
O792        O  0.56826131  0.91147142  0.66303274    -0.82500
O793        O  0.65990366  0.20250376  0.25844297    -0.82000
C794        C  0.67853280  0.17956656  0.10730351     0.97400
O795        O  0.68355794  0.18938948  0.12461527    -0.71100
O796        O  0.66499833  0.20510782  0.13300949    -0.74700
Al797      Al  0.67742632  0.19961248  0.17262222     1.49000
C798        C  0.65401919  0.20886181  0.14210016     0.92600
O799        O  0.64341424  0.18050879  0.17957128    -0.80900
O800        O  0.67285657  0.17036143  0.25358609    -0.74400
Al801      Al  0.65262577  0.19133544  0.21774476     1.90100
O802        O  0.65547667  0.16384464  0.18893121    -0.73500
O803        O  0.69051265  0.17485578  0.19490222    -0.73400
O804        O  0.67228396  0.17173166  0.13033555    -0.79000
O805        O  0.69125054  0.19518396  0.21002714    -0.77200
O806        O  0.66744526  0.18752231  0.19416785    -1.13400
O807        O  0.67281497  0.21266452  0.21477058    -0.72600
C808        C  0.66597903  0.21240014  0.24884478     0.98200
C809        C  0.64499524  0.16869038  0.17709299     0.94600
Al810      Al  0.67238197  0.17139688  0.19212840     1.55600
O811        O  0.64855079  0.20513981  0.17684488    -0.77200
C812        C  0.69665090  0.18450645  0.20842816     0.98700
C813        C  0.66404117  0.17339923  0.27933502     0.93600
O814        O  0.65405050  0.17870405  0.26439286    -0.82500
O815        O  0.66279692  0.20290954  0.75404317    -0.82000
C816        C  0.67932545  0.17736101  0.60462955     0.97400
O817        O  0.68429166  0.18772808  0.61795756    -0.71100
O818        O  0.66524543  0.20287714  0.62702802    -0.74700
Al819      Al  0.67887327  0.19882490  0.66459423     1.49000
C820        C  0.65512284  0.20770563  0.64045430     0.92600
O821        O  0.64586717  0.17867827  0.68286108    -0.80900
O822        O  0.67689481  0.17177591  0.75552625    -0.74400
Al823      Al  0.65521597  0.19073152  0.71726742     1.90100
O824        O  0.65895662  0.16298426  0.69670150    -0.73500
O825        O  0.69324685  0.17514758  0.69069953    -0.73400
O826        O  0.67414575  0.16981490  0.63168825    -0.79000
O827        O  0.69394067  0.19580879  0.69859906    -0.77200
O828        O  0.66986199  0.18698097  0.69194692    -1.13400
O829        O  0.67456296  0.21256379  0.70483392    -0.72600
C830        C  0.66816327  0.21284125  0.73996784     0.98200
C831        C  0.64802030  0.16689253  0.68590642     0.94600
Al832      Al  0.67541072  0.17110526  0.69360829     1.55600
O833        O  0.65026355  0.20398566  0.67612222    -0.77200
C834        C  0.69958470  0.18522917  0.69720274     0.98700
C835        C  0.66789343  0.17465650  0.78097071     0.93600
O836        O  0.65754998  0.17896875  0.76539511    -0.82500
O837        O  0.56288907  0.09579129  0.20435353    -0.82000
C838        C  0.56491465  0.07519134  0.03987491     0.97400
O839        O  0.57255089  0.08073856  0.06615102    -0.71100
O840        O  0.57865611  0.09620224  0.13214949    -0.74700
Al841      Al  0.57186158  0.07935958  0.12853822     1.49000
C842        C  0.57408775  0.10702366  0.12414636     0.92600
O843        O  0.53753579  0.10266618  0.11756933    -0.80900
O844        O  0.53180966  0.07448555  0.14885768    -0.74400
Al845      Al  0.55084102  0.09781900  0.15724777     1.90100
O846        O  0.53604638  0.08686645  0.07171066    -0.73500
O847        O  0.54973992  0.05792662  0.12982188    -0.73400
O848        O  0.55426652  0.07106445  0.05302380    -0.79000
O849        O  0.56992499  0.06143637  0.12340474    -0.77200
O850        O  0.55542811  0.08357905  0.12942012    -1.13400
O851        O  0.57206589  0.07741773  0.19080729    -0.72600
C852        C  0.56872485  0.08596100  0.21748025     0.98200
C853        C  0.53260970  0.09771865  0.08393526     0.94600
Al854      Al  0.54398887  0.07351378  0.10328843     1.55600
O855        O  0.56218551  0.10856329  0.12449559    -0.77200
C856        C  0.56085477  0.05368204  0.12584632     0.98700
C857        C  0.53095192  0.08072117  0.18395197     0.93600
O858        O  0.53899182  0.08924084  0.19343822    -0.82500
O859        O  0.54001579  0.08727451  0.58900961    -0.82000
C860        C  0.57208706  0.06779400  0.72034068     0.97400
O861        O  0.56114104  0.06324648  0.71220055    -0.71100
O862        O  0.54649473  0.08305399  0.71401881    -0.74700
Al863      Al  0.54825897  0.06977300  0.67316421     1.49000
C864        C  0.54169750  0.09361419  0.70418605     0.92600
O865        O  0.56818258  0.10238160  0.64660157    -0.80900
O866        O  0.57148067  0.07263120  0.56843083    -0.74400
Al867      Al  0.55441078  0.09385454  0.61881682     1.90100
O868        O  0.58294517  0.08919726  0.62645459    -0.73500
O869        O  0.56973034  0.05495618  0.63131091    -0.73400
O870        O  0.57857249  0.07301086  0.69054878    -0.79000
O871        O  0.54897196  0.05519455  0.63673027    -0.77200
O872        O  0.55892930  0.07877372  0.64023918    -1.13400
O873        O  0.53296275  0.07479377  0.64147354    -0.72600
C874        C  0.53097099  0.08143539  0.60731821     0.98200
C875        C  0.57975520  0.10005460  0.64022529     0.94600
Al876      Al  0.57444266  0.07285487  0.62993870     1.55600
O877        O  0.54386943  0.09866536  0.66730545    -0.77200
C878        C  0.55911072  0.04918255  0.62970323     0.98700
C879        C  0.56820092  0.08228643  0.54618082     0.93600
O880        O  0.56349262  0.09194592  0.56471297    -0.82500
O881        O  0.83263451  0.79277317  0.57288251    -0.82000
C882        C  0.81632197  0.81809962  0.42015599     0.97400
O883        O  0.81141788  0.80779177  0.43410799    -0.71100
O884        O  0.83076025  0.79293166  0.44544535    -0.74700
Al885      Al  0.81701436  0.79696458  0.48171453     1.49000
C886        C  0.84138794  0.78892585  0.45867997     0.92600
O887        O  0.84980754  0.81746416  0.50396983    -0.80900
O888        O  0.81856984  0.82507847  0.57032842    -0.74400
Al889      Al  0.84026621  0.80535381  0.53691237     1.90100
O890        O  0.83648183  0.83318835  0.51177720    -0.73500
O891        O  0.80239171  0.82060430  0.50560403    -0.73400
O892        O  0.82147499  0.82584941  0.44653143    -0.79000
O893        O  0.80191261  0.79991506  0.51512340    -0.77200
O894        O  0.82581095  0.80900855  0.50932906    -1.13400
O895        O  0.82149481  0.78324589  0.52163007    -0.72600
C896        C  0.82760208  0.78283995  0.55751924     0.98200
C897        C  0.84749197  0.82921037  0.50338049     0.94600
Al898      Al  0.82015542  0.82491697  0.50860551     1.55600
O899        O  0.84576803  0.79258427  0.49531875    -0.77200
C900        C  0.79624413  0.81050877  0.51396248     0.98700
C901        C  0.82736837  0.82260657  0.59754757     0.93600
O902        O  0.83739830  0.81705447  0.58495747    -0.82500
O903        O  0.82519223  0.79991601  0.05784392    -0.82000
C904        C  0.80740115  0.82886634  0.91752574     0.97400
O905        O  0.80161245  0.81877573  0.92957658    -0.71100
O906        O  0.81973253  0.80279898  0.93386845    -0.74700
Al907      Al  0.80717830  0.80663260  0.97374433     1.49000
C908        C  0.82990018  0.79730552  0.94293177     0.92600
O909        O  0.84128026  0.82592136  0.98990053    -0.80900
O910        O  0.81161432  0.83148486  0.06951683    -0.74400
Al911      Al  0.83221578  0.81296047  0.02269253     1.90100
O912        O  0.82867452  0.84129855  0.00950810    -0.73500
O913        O  0.79348869  0.82998865  0.00710977    -0.73400
O914        O  0.81231330  0.83611080  0.94602469    -0.79000
O915        O  0.79307751  0.80929440  0.01043226    -0.77200
O916        O  0.81708304  0.81760157  0.00157182    -1.13400
O917        O  0.81115965  0.79221045  0.01168765    -0.72600
C918        C  0.81771512  0.79109393  0.04659298     0.98200
C919        C  0.83945647  0.83769744  0.99626719     0.94600
Al920      Al  0.81187567  0.83352887  0.00764268     1.55600
O921        O  0.83599943  0.80043035  0.97726786    -0.77200
C922        C  0.78740842  0.81971202  0.01411924     0.98700
C923        C  0.82116517  0.82805734  0.09226722     0.93600
O924        O  0.83104836  0.82363089  0.07414150    -0.82500
O925        O  0.94727917  0.91467313  0.36936897    -0.82000
C926        C  0.92063703  0.93142772  0.51653486     0.97400
O927        O  0.93049446  0.93704613  0.50217906    -0.71100
O928        O  0.94595922  0.91814269  0.49609180    -0.74700
Al929      Al  0.94186802  0.93126082  0.45690852     1.49000
C930        C  0.95118701  0.90804417  0.48416994     0.92600
O931        O  0.92274583  0.89736166  0.43808604    -0.80900
O932        O  0.91470346  0.92780981  0.36634575    -0.74400
Al933      Al  0.93474815  0.90707289  0.40502756     1.90100
O934        O  0.90674583  0.91003603  0.42669815    -0.73500
O935        O  0.91802433  0.94484578  0.42817268    -0.73400
O936        O  0.91320743  0.92578185  0.49013705    -0.79000
O937        O  0.93865147  0.94562859  0.42021511    -0.77200
O938        O  0.93041479  0.92167904  0.42965628    -1.13400
O939        O  0.95601105  0.92695912  0.41903793    -0.72600
C940        C  0.95690344  0.92033841  0.38461247     0.98200
C941        C  0.91089546  0.89921705  0.43754005     0.94600
Al942      Al  0.91437720  0.92673222  0.42795822     1.55600
O943        O  0.94772247  0.90268880  0.44877340    -0.77200
C944        C  0.92796669  0.95107469  0.41832973     0.98700
C945        C  0.91790486  0.91914808  0.34019838     0.93600
O946        O  0.92330116  0.90912481  0.35474137    -0.82500
O947        O  0.94866099  0.91381322  0.88022077    -0.82000
C948        C  0.92219644  0.93698558  0.01544668     0.97400
O949        O  0.93223444  0.94197354  0.99969584    -0.71100
O950        O  0.94668219  0.92266863  0.00134217    -0.74700
Al951      Al  0.94356087  0.93423231  0.95740861     1.49000
C952        C  0.95017670  0.91136467  0.99780497     0.92600
O953        O  0.92160115  0.90107363  0.95034882    -0.80900
O954        O  0.91676707  0.92975556  0.86709515    -0.74400
Al955      Al  0.93499357  0.90874140  0.91626216     1.90100
O956        O  0.90683956  0.91446153  0.93096218    -0.73500
O957        O  0.92072133  0.94837893  0.92306825    -0.73400
O958        O  0.91441675  0.93138828  0.99007729    -0.79000
O959        O  0.94139097  0.94747559  0.91550548    -0.77200
O960        O  0.93161014  0.92445393  0.93356931    -1.13400
O961        O  0.95777484  0.92790023  0.92236165    -0.72600
C962        C  0.95847125  0.91990973  0.89139821     0.98200
C963        C  0.90995806  0.90366472  0.94575251     0.94600
Al964      Al  0.91591712  0.93054292  0.92829462     1.55600
O965        O  0.94677021  0.90479409  0.96482613    -0.77200
C966        C  0.93114296  0.95360058  0.91220296     0.98700
C967        C  0.91954359  0.92006848  0.84486016     0.93600
O968        O  0.92447917  0.91028537  0.86321410    -0.82500
O969        O  0.82623013  0.20285484  0.22143533    -0.82000
C970        C  0.81273879  0.17154480  0.36310636     0.97400
O971        O  0.80663854  0.18142891  0.35209713    -0.71100
O972        O  0.82542491  0.19765361  0.34762918    -0.74700
Al973      Al  0.81164685  0.19417196  0.30999285     1.49000
C974        C  0.83574277  0.20278252  0.33601204     0.92600
O975        O  0.84536038  0.17689318  0.27769048    -0.80900
O976        O  0.81403807  0.16948704  0.21013387    -0.74400
Al977      Al  0.83482758  0.18948576  0.25107910     1.90100
O978        O  0.83277445  0.16062381  0.26620604    -0.73500
O979        O  0.79781002  0.17087187  0.27564353    -0.73400
O980        O  0.81786958  0.16492048  0.33370883    -0.79000
O981        O  0.79682164  0.19166778  0.27522109    -0.77200
O982        O  0.82084125  0.18385229  0.27731744    -1.13400
O983        O  0.81490362  0.20935397  0.27655758    -0.72600
C984        C  0.82032779  0.21158557  0.24060276     0.98200
C985        C  0.84366119  0.16502419  0.27584562     0.94600
Al986      Al  0.81597996  0.16770457  0.27184777     1.55600
O987        O  0.84004811  0.20085290  0.29798199    -0.77200
C988        C  0.79144464  0.18098356  0.27030896     0.98700
C989        C  0.82219320  0.17398368  0.18380432     0.93600
O990        O  0.83206016  0.17961813  0.19840663    -0.82500
O991        O  0.83211788  0.19960239  0.71631489    -0.82000
C992        C  0.80965723  0.17378722  0.85669111     0.97400
O993        O  0.80473468  0.18358787  0.83895741    -0.71100
O994        O  0.82373883  0.19927132  0.84067806    -0.74700
Al995      Al  0.81242440  0.19485057  0.79570765     1.49000
C996        C  0.83432211  0.20445138  0.83379583     0.92600
O997        O  0.84674760  0.17588263  0.79502609    -0.80900
O998        O  0.81914413  0.16712097  0.71059685    -0.74400
Al999      Al  0.83834457  0.18767303  0.75668192     1.90100
O1000       O  0.83439542  0.15976058  0.77931438    -0.73500
O1001       O  0.79979755  0.17074543  0.76391902    -0.73400
O1002       O  0.81631994  0.16641217  0.83390528    -0.79000
O1003       O  0.79983542  0.19135287  0.75255585    -0.77200
O1004       O  0.82291277  0.18330056  0.77468447    -1.13400
O1005       O  0.81832458  0.20888492  0.75868914    -0.72600
C1006       C  0.82598520  0.20931706  0.72683044     0.98200
C1007       C  0.84494472  0.16398400  0.79326176     0.94600
Al1008     Al  0.81780646  0.16721150  0.77214312     1.55600
O1009       O  0.84098048  0.20113597  0.80108457    -0.77200
C1010       C  0.79425826  0.18070955  0.75022924     0.98700
C1011       C  0.82883477  0.17021358  0.68850789     0.93600
O1012       O  0.83819595  0.17584131  0.70710216    -0.82500
O1013       O  0.94878867  0.08292228  0.38714862    -0.82000
C1014       C  0.91808449  0.06404607  0.25202485     0.97400
O1015       O  0.92826190  0.05859627  0.26442208    -0.71100
O1016       O  0.94432406  0.07732089  0.26297720    -0.74700
Al1017     Al  0.94095669  0.06501294  0.30542300     1.49000
C1018       C  0.94931519  0.08802553  0.26978328     0.92600
O1019       O  0.92261761  0.09947935  0.32383923    -0.80900
O1020       O  0.91617246  0.06981613  0.40146283    -0.74400
Al1021     Al  0.93553102  0.09006067  0.35403107     1.90100
O1022       O  0.90694219  0.08681328  0.34149483    -0.73500
O1023       O  0.91769103  0.05184234  0.34124936    -0.73400
O1024       O  0.91152139  0.07024614  0.27890737    -0.79000
O1025       O  0.93848118  0.05134631  0.34555355    -0.77200
O1026       O  0.93034939  0.07511103  0.33339107    -1.13400
O1027       O  0.95617297  0.06976904  0.33846749    -0.72600
C1028       C  0.95789999  0.07677918  0.37161916     0.98200
C1029       C  0.91086937  0.09771206  0.33003582     0.94600
Al1030     Al  0.91432494  0.07007170  0.34021926     1.55600
O1031       O  0.94715626  0.09390251  0.30530018    -0.77200
C1032       C  0.92785570  0.04582237  0.34962776     0.98700
C1033       C  0.91979514  0.07912070  0.42453526     0.93600
O1034       O  0.92554837  0.08860737  0.40733525    -0.82500
O1035       O  0.92458973  0.08768390  0.75933816    -0.82000
C1036       C  0.92552699  0.06884221  0.92791994     0.97400
O1037       O  0.91765205  0.07406471  0.90200488    -0.71100
O1038       O  0.91032939  0.08882543  0.83544913    -0.74700
Al1039     Al  0.91753768  0.07201399  0.83999208     1.49000
C1040       C  0.91495581  0.09997997  0.83739727     0.92600
O1041       O  0.95171093  0.09653679  0.83718622    -0.80900
O1042       O  0.95827058  0.07029583  0.81644894    -0.74400
Al1043     Al  0.93755592  0.09065421  0.80212324     1.90100
O1044       O  0.95213411  0.08297043  0.89159890    -0.73500
O1045       O  0.94136216  0.05268378  0.83625610    -0.73400
O1046       O  0.93610670  0.06501724  0.91371847    -0.79000
O1047       O  0.92087443  0.05402863  0.84630674    -0.77200
O1048       O  0.93370594  0.07706627  0.83493336    -1.13400
O1049       O  0.91599438  0.06935378  0.77838538    -0.72600
C1050       C  0.91830992  0.07777360  0.74974472     0.98200
C1051       C  0.95605526  0.09310194  0.87402223     0.94600
Al1052     Al  0.94591892  0.06847465  0.86216151     1.55600
O1053       O  0.92682690  0.10169159  0.83443166    -0.77200
C1054       C  0.93067355  0.04735913  0.84036159     0.98700
C1055       C  0.95788679  0.07472626  0.77786604     0.93600
O1056       O  0.94855001  0.08131617  0.76547218    -0.82500
O1057       O  0.14914464  0.82503899  0.34407283    -0.82000
C1058       C  0.17488354  0.82673544  0.18897889     0.97400
O1059       O  0.16877408  0.83445453  0.21271339    -0.71100
O1060       O  0.15213491  0.84158136  0.27391539    -0.74700
Al1061     Al  0.16845659  0.83347502  0.27558957     1.49000
C1062       C  0.14127627  0.83753515  0.26267475     0.92600
O1063       O  0.14331758  0.80120012  0.25127488    -0.80900
O1064       O  0.16703919  0.79196133  0.28784976    -0.74400
Al1065     Al  0.14755415  0.81365469  0.29495665     1.90100
O1066       O  0.15990269  0.80174009  0.20809967    -0.73500
O1067       O  0.18622590  0.80879129  0.28881915    -0.73400
O1068       O  0.17935795  0.81668060  0.20574998    -0.79000
O1069       O  0.18625820  0.82940529  0.27841000    -0.77200
O1070       O  0.16278615  0.81752620  0.27380867    -1.13400
O1071       O  0.16839672  0.83324301  0.33785835    -0.72600
C1072       C  0.15890546  0.83021837  0.36124463     0.98200
C1073       C  0.14889612  0.79783239  0.21674156     0.94600
Al1074     Al  0.17236895  0.80572552  0.24985262     1.55600
O1075       O  0.13917254  0.82579651  0.25933212    -0.77200
C1076       C  0.19212390  0.81929694  0.28827806     0.98700
C1077       C  0.15992853  0.79132075  0.32105192     0.93600
O1078       O  0.15374228  0.80088556  0.33294353    -0.82500
O1079       O  0.16377476  0.79712529  0.71165858    -0.82000
C1080       C  0.17545181  0.82465810  0.86367044     0.97400
O1081       O  0.18018343  0.81397376  0.85425870    -0.71100
O1082       O  0.16272960  0.79706448  0.83801631    -0.74700
Al1083     Al  0.17697501  0.80262073  0.80625797     1.49000
C1084       C  0.15267007  0.79239524  0.82248956     0.92600
O1085       O  0.14358470  0.82041841  0.77368280    -0.80900
O1086       O  0.17547215  0.82973723  0.71123177    -0.74400
Al1087     Al  0.15447774  0.80888253  0.74451806     1.90100
O1088       O  0.15621200  0.83699475  0.76626773    -0.73500
O1089       O  0.19121691  0.82713439  0.78063308    -0.73400
O1090       O  0.17087956  0.83188124  0.83448826    -0.79000
O1091       O  0.19252940  0.80646067  0.77880999    -0.77200
O1092       O  0.16818401  0.81383351  0.77477283    -1.13400
O1093       O  0.17540753  0.78907920  0.76485059    -0.72600
C1094       C  0.17110186  0.78862691  0.72617370     0.98200
C1095       C  0.14514742  0.83232302  0.77061315     0.94600
Al1096     Al  0.17308647  0.83010739  0.77329013     1.55600
O1097       O  0.14897603  0.79572362  0.78468164    -0.77200
C1098       C  0.19788357  0.81717025  0.77886424     0.98700
C1099       C  0.16653737  0.82702774  0.68473812     0.93600
O1100       O  0.15698134  0.82059617  0.69700619    -0.82500
O1101       O  0.06393106  0.91449080  0.10647044    -0.82000
C1102       C  0.07183993  0.93640474  0.26623865     0.97400
O1103       O  0.07843498  0.93142605  0.23668407    -0.71100
O1104       O  0.08230558  0.91549396  0.17341889    -0.74700
Al1105     Al  0.07528519  0.93229744  0.17530412     1.49000
C1106       C  0.07796140  0.90493341  0.18675518     0.92600
O1107       O  0.04206428  0.90851387  0.20579333    -0.80900
O1108       O  0.03365537  0.93253218  0.18142132    -0.74400
Al1109     Al  0.05375388  0.91292376  0.15884885     1.90100
O1110       O  0.04614368  0.92326698  0.25415242    -0.73500
O1111       O  0.05097166  0.95093529  0.17743156    -0.73400
O1112       O  0.06183126  0.94236616  0.25548386    -0.79000
O1113       O  0.07182367  0.95044132  0.17553533    -0.77200
O1114       O  0.05928600  0.92731551  0.18249166    -1.13400
O1115       O  0.07330693  0.93308950  0.11337380    -0.72600
C1116       C  0.06935768  0.92409188  0.08929731     0.98200
C1117       C  0.04057018  0.91308745  0.24372312     0.94600
Al1118     Al  0.04896536  0.93663501  0.21444013     1.55600
O1119       O  0.06611156  0.90314177  0.18881754    -0.77200
C1120       C  0.06144647  0.95624641  0.16869240     0.98700
C1121       C  0.03184720  0.92701275  0.14507664     0.93600
O1122       O  0.04078241  0.92121828  0.12675535    -0.82500
O1123       O  0.07073309  0.90729686  0.60559972    -0.82000
C1124       C  0.07004473  0.93304599  0.75964879     0.97400
O1125       O  0.07803734  0.92675185  0.73774874    -0.71100
O1126       O  0.08586859  0.90971591  0.67978064    -0.74700
Al1127     Al  0.07856496  0.92644105  0.67560537     1.49000
C1128       C  0.08112562  0.89943189  0.69372432     0.92600
O1129       O  0.04423419  0.90321046  0.69467669    -0.80900
O1130       O  0.03759863  0.92755054  0.64850077    -0.74400
Al1131     Al  0.05818478  0.90642957  0.65294056     1.90100
O1132       O  0.04395450  0.92085101  0.73275575    -0.73500
O1133       O  0.05582889  0.94547040  0.65239567    -0.73400
O1134       O  0.06087352  0.93859308  0.74010239    -0.79000
O1135       O  0.07583422  0.94457374  0.67154699    -0.77200
O1136       O  0.06228786  0.92166224  0.67328836    -1.13400
O1137       O  0.07953092  0.92627441  0.61404315    -0.72600
C1138       C  0.07645030  0.91704254  0.58964141     0.98200
C1139       C  0.03998540  0.90972855  0.72638277     0.94600
Al1140     Al  0.05053233  0.93231862  0.69160377     1.55600
O1141       O  0.06924060  0.89780741  0.69309744    -0.77200
C1142       C  0.06657935  0.95078228  0.65599972     0.98700
C1143       C  0.03747516  0.91976696  0.61684959     0.93600
O1144       O  0.04686677  0.91275437  0.61063267    -0.82500
O1145       O  0.32866337  0.82547739  0.23728155    -0.82000
C1146       C  0.30949025  0.83136632  0.40106692     0.97400
O1147       O  0.31471858  0.83809247  0.37188395    -0.71100
O1148       O  0.33003662  0.84212735  0.30553714    -0.74700
Al1149     Al  0.31270781  0.83589930  0.31078661     1.49000
C1150       C  0.34061368  0.83706470  0.31516068     0.92600
O1151       O  0.33479195  0.80059166  0.32733592    -0.80900
O1152       O  0.30905664  0.79467860  0.30648821    -0.74400
Al1153     Al  0.33032965  0.81387774  0.28587679     1.90100
O1154       O  0.32144014  0.80382747  0.38034491    -0.73500
O1155       O  0.29234206  0.81277797  0.31606167    -0.73400
O1156       O  0.30415029  0.82088113  0.39162753    -0.79000
O1157       O  0.29448726  0.83351961  0.31617817    -0.77200
O1158       O  0.31678120  0.81952167  0.31416837    -1.13400
O1159       O  0.31040870  0.83495901  0.24909576    -0.72600
C1160       C  0.31908102  0.83156685  0.22332502     0.98200
C1161       C  0.33078333  0.79796550  0.36524127     0.94600
Al1162     Al  0.30748447  0.80891164  0.34595179     1.55600
O1163       O  0.34147283  0.82506625  0.31659506    -0.77200
C1164       C  0.28750813  0.82367904  0.31414917     0.98700
C1165       C  0.31346478  0.79364059  0.26812388     0.93600
O1166       O  0.32056951  0.80221963  0.25247259    -0.82500
O1167       O  0.32982046  0.79575731  0.86454727    -0.82000
C1168       C  0.31504543  0.82556423  0.72093256     0.97400
O1169       O  0.31076118  0.81451744  0.72910802    -0.71100
O1170       O  0.32989742  0.79945744  0.73902218    -0.74700
Al1171     Al  0.31543215  0.80240391  0.77322000     1.49000
C1172       C  0.33970159  0.79413974  0.75400457     0.92600
O1173       O  0.34767039  0.82283147  0.80855744    -0.80900
O1174       O  0.31508021  0.82722597  0.87264817    -0.74400
Al1175     Al  0.33779128  0.80935026  0.83493472     1.90100
O1176       O  0.33358876  0.83761336  0.82070722    -0.73500
O1177       O  0.29987283  0.82494372  0.80307650    -0.73400
O1178       O  0.31957380  0.83253706  0.75088471    -0.79000
O1179       O  0.29972232  0.80413261  0.80338388    -0.77200
O1180       O  0.32357723  0.81361689  0.80662789    -1.13400
O1181       O  0.31892009  0.78779727  0.80959841    -0.72600
C1182       C  0.32440842  0.78643798  0.84623775     0.98200
C1183       C  0.34498110  0.83445168  0.81412904     0.94600
Al1184     Al  0.31750595  0.82931485  0.81152041     1.55600
O1185       O  0.34397418  0.79745878  0.79114528    -0.77200
C1186       C  0.29380743  0.81452810  0.80463113     0.98700
C1187       C  0.32379604  0.82418471  0.89948264     0.93600
O1188       O  0.33414104  0.81945712  0.88604947    -0.82500
O1189       O  0.45179856  0.91299182  0.28532922    -0.82000
C1190       C  0.42402686  0.92919428  0.43195633     0.97400
O1191       O  0.43442488  0.93398134  0.41909205    -0.71100
O1192       O  0.45051066  0.91526346  0.41235394    -0.74700
Al1193     Al  0.44586162  0.92856819  0.37412896     1.49000
C1194       C  0.45563974  0.90507348  0.40016968     0.92600
O1195       O  0.42773832  0.89394599  0.35057797    -0.80900
O1196       O  0.41834374  0.92440504  0.28237443    -0.74400
Al1197     Al  0.43957542  0.90451972  0.32000721     1.90100
O1198       O  0.41133691  0.90657807  0.34319418    -0.73500
O1199       O  0.42153983  0.94146893  0.34457258    -0.73400
O1200       O  0.41707429  0.92272009  0.40642382    -0.79000
O1201       O  0.44225447  0.94314150  0.33883964    -0.77200
O1202       O  0.43462047  0.91878882  0.34603174    -1.13400
O1203       O  0.46006873  0.92501027  0.33663793    -0.72600
C1204       C  0.46103382  0.91917319  0.30080601     0.98200
C1205       C  0.41586667  0.89564482  0.34979747     0.94600
Al1206     Al  0.41837046  0.92339624  0.34429783     1.55600
O1207       O  0.45238817  0.90015471  0.36389565    -0.77200
C1208       C  0.43135836  0.94816178  0.33733371     0.98700
C1209       C  0.42201329  0.91583327  0.25658739     0.93600
O1210       O  0.42836876  0.90639625  0.27038316    -0.82500
O1211       O  0.42231602  0.91451817  0.91509326    -0.82000
C1212       C  0.41973475  0.93873964  0.75641860     0.97400
O1213       O  0.41225728  0.93306134  0.78230833    -0.71100
O1214       O  0.40643256  0.91598059  0.84296314    -0.74700
Al1215     Al  0.41342849  0.93309355  0.84463044     1.49000
C1216       C  0.41108328  0.90524967  0.83320203     0.92600
O1217       O  0.44802644  0.91007443  0.82779178    -0.80900
O1218       O  0.45441667  0.93508076  0.85885334    -0.74400
Al1219     Al  0.43438327  0.91378213  0.86829347     1.90100
O1220       O  0.44632268  0.92546381  0.77972522    -0.73500
O1221       O  0.43718675  0.95257347  0.85258128    -0.73400
O1222       O  0.42995642  0.94364827  0.77093268    -0.79000
O1223       O  0.41654336  0.95142785  0.84650016    -0.77200
O1224       O  0.42963630  0.92840143  0.84347497    -1.13400
O1225       O  0.41351279  0.93333824  0.90707410    -0.72600
C1226       C  0.41667654  0.92401807  0.93111745     0.98200
C1227       C  0.45134874  0.91523048  0.79207211     0.94600
Al1228     Al  0.44100772  0.93836767  0.81768382     1.55600
O1229       O  0.42303436  0.90386281  0.83275570    -0.77200
C1230       C  0.42651171  0.95784508  0.85485448     0.98700
C1231       C  0.45472458  0.92957155  0.89575053     0.93600
O1232       O  0.44592920  0.92203749  0.90678273    -0.82500
O1233       O  0.15597642  0.20566522  0.08990023    -0.82000
C1234       C  0.17323757  0.17787109  0.94496683     0.97400
O1235       O  0.17642015  0.18927312  0.95350548    -0.71100
O1236       O  0.15793535  0.20522396  0.96462721    -0.74700
Al1237     Al  0.17196696  0.20071882  0.00000665     1.49000
C1238       C  0.14764228  0.20964432  0.97837630     0.92600
O1239       O  0.13955291  0.17970492  0.02314199    -0.80900
O1240       O  0.17079254  0.17475487  0.09682951    -0.74400
Al1241     Al  0.14866044  0.19264593  0.05553718     1.90100
O1242       O  0.15332678  0.16485921  0.03863426    -0.73500
O1243       O  0.18724077  0.17745491  0.03139007    -0.73400
O1244       O  0.16872641  0.17053752  0.97390770    -0.79000
O1245       O  0.18763691  0.19813968  0.03035137    -0.77200
O1246       O  0.16341903  0.18898369  0.03001406    -1.13400
O1247       O  0.16870699  0.21427694  0.04087691    -0.72600
C1248       C  0.16274659  0.21487453  0.07676094     0.98200
C1249       C  0.14231052  0.16799281  0.02616878     0.94600
Al1250     Al  0.16951112  0.17324914  0.03500588     1.55600
O1251       O  0.14305847  0.20531626  0.01353547    -0.77200
C1252       C  0.19346996  0.18773649  0.03211862     0.98700
C1253       C  0.16143610  0.17686399  0.12149201     0.93600
O1254       O  0.15126175  0.18152509  0.10564416    -0.82500
O1255       O  0.16578217  0.18538415  0.45964610    -0.82000
C1256       C  0.18405573  0.17428930  0.62923351     0.97400
O1257       O  0.18365843  0.16653107  0.59756994    -0.71100
O1258       O  0.16262518  0.16183586  0.55379150    -0.74700
Al1259     Al  0.17880573  0.16819385  0.53663008     1.49000
C1260       C  0.15176005  0.16495260  0.54023262     0.92600
O1261       O  0.15351424  0.19715452  0.56851727    -0.80900
O1262       O  0.18729020  0.20634435  0.52108262    -0.74400
Al1263     Al  0.16046717  0.19065168  0.51521947     1.90100
O1264       O  0.17140153  0.20586824  0.59132302    -0.73500
O1265       O  0.20041909  0.18795322  0.55797414    -0.73400
O1266       O  0.18326641  0.18613698  0.62303073    -0.79000
O1267       O  0.19578707  0.17148470  0.51796166    -0.77200
O1268       O  0.17462131  0.18469167  0.54106031    -1.13400
O1269       O  0.17458386  0.16692457  0.47510180    -0.72600
C1270       C  0.17055662  0.17503244  0.44758017     0.98200
C1271       C  0.15945219  0.20515027  0.59193650     0.94600
Al1272     Al  0.18468173  0.19553752  0.57074789     1.55600
O1273       O  0.15019216  0.17569375  0.52254622    -0.77200
C1274       C  0.20385618  0.17920495  0.53304113     0.98700
C1275       C  0.17846831  0.21139886  0.49885116     0.93600
O1276       O  0.16733777  0.20690147  0.50027672    -0.82500
O1277       O  0.06410699  0.08729235  0.13857774    -0.82000
C1278       C  0.06609502  0.06730034  0.97112339     0.97400
O1279       O  0.07356206  0.07247611  0.99811703    -0.71100
O1280       O  0.08094501  0.08765396  0.05985405    -0.74700
Al1281     Al  0.07276335  0.07125217  0.05929626     1.49000
C1282       C  0.07677771  0.09882651  0.05529379     0.92600
O1283       O  0.04076689  0.09711394  0.04685847    -0.80900
O1284       O  0.03086680  0.07241042  0.06903369    -0.74400
Al1285     Al  0.05288353  0.09089548  0.08982938     1.90100
O1286       O  0.04100734  0.08266997  0.99513862    -0.73500
O1287       O  0.04742446  0.05337664  0.06421335    -0.73400
O1288       O  0.05556174  0.06282062  0.98391880    -0.79000
O1289       O  0.06824581  0.05340250  0.05827488    -0.77200
O1290       O  0.05679574  0.07691547  0.06020293    -1.13400
O1291       O  0.07364474  0.06960910  0.12051399    -0.72600
C1292       C  0.07063837  0.07761250  0.14905265     0.98200
C1293       C  0.03763127  0.09344737  0.00872184     0.94600
Al1294     Al  0.04476442  0.06845473  0.03076778     1.55600
O1295       O  0.06517150  0.10112278  0.06088288    -0.77200
C1296       C  0.05795150  0.04771015  0.06762270     0.98700
C1297       C  0.03010809  0.07761307  0.10604759     0.93600
O1298       O  0.03983562  0.08271802  0.12297160    -0.82500
O1299       O  0.07182804  0.08703829  0.63087493    -0.82000
C1300       C  0.07539399  0.06378395  0.47296731     0.97400
O1301       O  0.08274708  0.06938581  0.49958825    -0.71100
O1302       O  0.08832403  0.08598417  0.56094315    -0.74700
Al1303     Al  0.08146530  0.06895304  0.56151121     1.49000
C1304       C  0.08364781  0.09662036  0.55013903     0.92600
O1305       O  0.04696875  0.09153655  0.54014060    -0.80900
O1306       O  0.04036042  0.06628230  0.57208184    -0.74400
Al1307     Al  0.06016206  0.08793336  0.58245998     1.90100
O1308       O  0.04853216  0.07594083  0.49323773    -0.73500
O1309       O  0.05816008  0.04906168  0.56878730    -0.73400
O1310       O  0.06550271  0.05812432  0.48684764    -0.79000
O1311       O  0.07875793  0.05066110  0.56305470    -0.77200
O1312       O  0.06515728  0.07336872  0.55880704    -1.13400
O1313       O  0.08102846  0.06847602  0.62351338    -0.72600
C1314       C  0.07732467  0.07748180  0.64760095     0.98200
C1315       C  0.04354429  0.08621819  0.50490416     0.94600
Al1316     Al  0.05407302  0.06315353  0.53244711     1.55600
O1317       O  0.07170947  0.09793106  0.54817931    -0.77200
C1318       C  0.06900028  0.04412936  0.57251491     0.98700
C1319       C  0.03947735  0.07222304  0.60786073     0.93600
O1320       O  0.04816856  0.07982346  0.61959751    -0.82500
O1321       O  0.33684799  0.18147061  0.53733446    -0.82000
C1322       C  0.31835034  0.17822528  0.36934369     0.97400
O1323       O  0.32323520  0.17081163  0.39741260    -0.71100
O1324       O  0.33685431  0.16414415  0.46627308    -0.74700
Al1325     Al  0.32096281  0.17231621  0.45873496     1.49000
C1326       C  0.34821295  0.16749547  0.46061551     0.92600
O1327       O  0.34737282  0.20431691  0.44388679    -0.80900
O1328       O  0.32132891  0.21359908  0.46744436    -0.74400
Al1329     Al  0.34100465  0.19224280  0.48742525     1.90100
O1330       O  0.33231341  0.20455149  0.39399153    -0.73500
O1331       O  0.30280083  0.19665342  0.45955038    -0.73400
O1332       O  0.31352385  0.18867296  0.38127555    -0.79000
O1333       O  0.30329664  0.17610290  0.45163243    -0.77200
O1334       O  0.32680502  0.18826129  0.45816455    -1.13400
O1335       O  0.31834843  0.17293561  0.51971074    -0.72600
C1336       C  0.32641988  0.17621135  0.54852941     0.98200
C1337       C  0.34311693  0.20824115  0.40726065     0.94600
Al1338     Al  0.31816786  0.19988451  0.42822295     1.55600
O1339       O  0.35099337  0.17922117  0.45965523    -0.77200
C1340       C  0.29714381  0.18603762  0.46011528     0.98700
C1341       C  0.32707913  0.21477306  0.50353014     0.93600
O1342       O  0.33336741  0.20566519  0.51940448    -0.82500
O1343       O  0.32990829  0.17795377  0.02428026    -0.82000
C1344       C  0.30520704  0.17294700  0.86801089     0.97400
O1345       O  0.31073365  0.16583563  0.89553341    -0.71100
O1346       O  0.32779338  0.16090790  0.95598534    -0.74700
Al1347     Al  0.31092341  0.16793327  0.95706688     1.49000
C1348       C  0.33826771  0.16545809  0.94272381     0.92600
O1349       O  0.33421166  0.20188928  0.93039054    -0.80900
O1350       O  0.30975147  0.20927714  0.96124268    -0.74400
Al1351     Al  0.33056485  0.18919237  0.97444098     1.90100
O1352       O  0.31852353  0.19953783  0.88360193    -0.73500
O1353       O  0.29203553  0.19188647  0.96166531    -0.73400
O1354       O  0.29998205  0.18313554  0.88036898    -0.79000
O1355       O  0.29273768  0.17110512  0.95977575    -0.77200
O1356       O  0.31578311  0.18410351  0.95184969    -1.13400
O1357       O  0.31107520  0.16897910  0.01885437    -0.72600
C1358       C  0.32046255  0.17245862  0.04197718     0.98200
C1359       C  0.32902141  0.20450059  0.89398353     0.94600
Al1360     Al  0.30583512  0.19504548  0.92398664     1.55600
O1361       O  0.33993505  0.17736078  0.94061334    -0.77200
C1362       C  0.28691244  0.18125216  0.96896980     0.98700
C1363       C  0.31544310  0.21020069  0.99769218     0.93600
O1364       O  0.32277153  0.20144320  0.01050235    -0.82500
O1365       O  0.41980955  0.08372900  0.32756279    -0.82000
C1366       C  0.41358623  0.06078423  0.48608483     0.97400
O1367       O  0.40672789  0.06635694  0.45786669    -0.71100
O1368       O  0.40248137  0.08309572  0.39540647    -0.74700
Al1369     Al  0.40885013  0.06584613  0.39641280     1.49000
C1370       C  0.40741350  0.09361715  0.40676155     0.92600
O1371       O  0.44360973  0.08791065  0.42350166    -0.80900
O1372       O  0.45026883  0.06305154  0.39434059    -0.74400
Al1373     Al  0.43088326  0.08445856  0.37848165     1.90100
O1374       O  0.44064460  0.07255066  0.47096256    -0.73500
O1375       O  0.43206178  0.04601839  0.39366937    -0.73400
O1376       O  0.42336719  0.05474359  0.47423737    -0.79000
O1377       O  0.41130583  0.04747429  0.39591604    -0.77200
O1378       O  0.42519560  0.07007059  0.40189818    -1.13400
O1379       O  0.40997337  0.06534709  0.33432439    -0.72600
C1380       C  0.41390266  0.07438390  0.31038827     0.98200
C1381       C  0.44620378  0.08270094  0.45998319     0.94600
Al1382     Al  0.43569494  0.05985124  0.43089990     1.55600
O1383       O  0.41934456  0.09461409  0.41056353    -0.77200
C1384       C  0.42123331  0.04116986  0.38767796     0.98700
C1385       C  0.45139116  0.06867646  0.35783087     0.93600
O1386       O  0.44284352  0.07600925  0.34388450    -0.82500
O1387       O  0.42421407  0.09403483  0.81612915    -0.82000
C1388       C  0.42144523  0.07388878  0.98203349     0.97400
O1389       O  0.41396148  0.07851637  0.95359634    -0.71100
O1390       O  0.40682882  0.09252693  0.88529078    -0.74700
Al1391     Al  0.41589123  0.07683327  0.89207247     1.49000
C1392       C  0.40995194  0.10385642  0.89379095     0.92600
O1393       O  0.44639456  0.10471918  0.91081770    -0.80900
O1394       O  0.45742086  0.07979718  0.88564247    -0.74400
Al1395     Al  0.43477278  0.09808511  0.86686255     1.90100
O1396       O  0.44724450  0.08950137  0.96001830    -0.73500
O1397       O  0.44137885  0.05972628  0.89239187    -0.73400
O1398       O  0.43233509  0.06989285  0.97080520    -0.79000
O1399       O  0.42067353  0.05927975  0.89828558    -0.77200
O1400       O  0.43153495  0.08344858  0.89428914    -1.13400
O1401       O  0.41684165  0.07480703  0.83070936    -0.72600
C1402       C  0.41932947  0.08356795  0.80337151     0.98200
C1403       C  0.45024894  0.10054593  0.94753910     0.94600
Al1404     Al  0.44357154  0.07534127  0.92437987     1.55600
O1405       O  0.42153335  0.10693672  0.89588045    -0.77200
C1406       C  0.43104439  0.05351568  0.89312411     0.98700
C1407       C  0.45817640  0.08625810  0.85063252     0.93600
O1408       O  0.44845627  0.09150714  0.83469904    -0.82500
C1409       C  0.41097537  0.06260059  0.53339845    -0.12100
C1410       C  0.41625120  0.05470450  0.56641703     0.03300
C1411       C  0.41591903  0.05853220  0.61027558    -0.12700
C1412       C  0.41033696  0.07009367  0.62218813     0.18200
C1413       C  0.40433846  0.07754978  0.58987046    -0.09700
C1414       C  0.40463672  0.07376492  0.54603807    -0.02700
H1415       H  0.42036076  0.05262056  0.63516234     0.04700
C1416       C  0.41156608  0.07449291  0.66802720     0.20200
H1417       H  0.40048012  0.07999720  0.52150960     0.09900
C1418       C  0.42037077  0.08415154  0.67815838    -0.16000
C1419       C  0.42277062  0.08769572  0.72167392     0.02900
C1420       C  0.41632280  0.08137820  0.75623909    -0.11400
C1421       C  0.40715577  0.07203100  0.74549062    -0.01400
C1422       C  0.40473187  0.06862452  0.70199416    -0.06600
H1423       H  0.42567314  0.08871057  0.65206147     0.05900
H1424       H  0.40190059  0.06720285  0.77112843     0.09300
Br1425     Br  0.39591651  0.09313081  0.60401091    -0.06300
Br1426     Br  0.42401159  0.03861876  0.55419908    -0.03200
Br1427     Br  0.43554892  0.10059767  0.73080650    -0.00400
Br1428     Br  0.39195390  0.05594456  0.69032862    -0.04700
C1429       C  0.41774708  0.07305651  0.02905716    -0.12100
C1430       C  0.40761135  0.08011709  0.04724048     0.03300
C1431       C  0.40555611  0.07982289  0.09262602    -0.12700
C1432       C  0.41338867  0.07264687  0.12062715     0.18200
C1433       C  0.42315696  0.06530929  0.10254973    -0.09700
C1434       C  0.42524018  0.06554189  0.05741821    -0.02700
H1435       H  0.39803787  0.08553580  0.10636523     0.04700
C1436       C  0.41199431  0.07364435  0.16879561     0.20200
H1437       H  0.43302321  0.05999567  0.04465899     0.09900
C1438       C  0.40706935  0.06335015  0.19282995    -0.16000
C1439       C  0.40704316  0.06345359  0.23881219     0.02900
C1440       C  0.41205784  0.07412494  0.26177010    -0.11400
C1441       C  0.41645415  0.08462466  0.23706646    -0.01400
C1442       C  0.41649672  0.08442775  0.19128823    -0.06600
H1443       H  0.40357430  0.05501452  0.17566290     0.05900
H1444       H  0.42032833  0.09294588  0.25332274     0.09300
Br1445     Br  0.43446070  0.05542243  0.13852801    -0.06300
Br1446     Br  0.39665877  0.09101914  0.01329408    -0.03200
Br1447     Br  0.40048369  0.04840445  0.26702686    -0.00400
Br1448     Br  0.42365734  0.09878992  0.16088450    -0.04700
C1449       C  0.34876452  0.15664648  0.93237178    -0.12100
C1450       C  0.35764406  0.15912139  0.89882614     0.03300
C1451       C  0.36764412  0.15060150  0.89175668    -0.12700
C1452       C  0.36891544  0.13956072  0.91743921     0.18200
C1453       C  0.35990342  0.13693386  0.95011996    -0.09700
C1454       C  0.34994987  0.14541944  0.95729876    -0.02700
H1455       H  0.37442159  0.15254949  0.86596746     0.04700
C1456       C  0.37964036  0.13081186  0.90977907     0.20200
H1457       H  0.34319902  0.14330929  0.98303038     0.09900
C1458       C  0.39069460  0.13186507  0.93558108    -0.16000
C1459       C  0.40081199  0.12337010  0.93048017     0.02900
C1460       C  0.39984235  0.11346984  0.89949061    -0.11400
C1461       C  0.38876103  0.11252852  0.87352670    -0.01400
C1462       C  0.37878073  0.12116599  0.87814205    -0.06600
H1463       H  0.39138196  0.13924993  0.96015664     0.05900
H1464       H  0.38788942  0.10507673  0.84925162     0.09300
Br1465     Br  0.36078569  0.12181721  0.98554643    -0.06300
Br1466     Br  0.35614031  0.17346957  0.85994983    -0.03200
Br1467     Br  0.41531318  0.12532022  0.96851218    -0.00400
Br1468     Br  0.36408984  0.11940372  0.84091902    -0.04700
C1469       C  0.32334981  0.17394123  0.59562418    -0.12100
C1470       C  0.33074386  0.17894589  0.63064784     0.03300
C1471       C  0.32685344  0.17702698  0.67395677    -0.12700
C1472       C  0.31565943  0.17028219  0.68379763     0.18200
C1473       C  0.30818944  0.16542974  0.64923654    -0.09700
C1474       C  0.31209459  0.16718160  0.60588788    -0.02700
H1475       H  0.33251487  0.18105430  0.70034120     0.04700
C1476       C  0.31179961  0.16899096  0.73030133     0.20200
H1477       H  0.30612669  0.16332706  0.58002975     0.09900
C1478       C  0.30067181  0.17495627  0.74463064    -0.16000
C1479       C  0.29766257  0.17540047  0.78921848     0.02900
C1480       C  0.30604976  0.17006309  0.82058763    -0.11400
C1481       C  0.31673807  0.16336699  0.80581877    -0.01400
C1482       C  0.31962859  0.16278362  0.76124943    -0.06600
H1483       H  0.29448424  0.17963883  0.72111480     0.05900
H1484       H  0.32329792  0.15912507  0.82913816     0.09300
Br1485     Br  0.29261639  0.15626192  0.65939454    -0.06300
Br1486     Br  0.34590738  0.18901879  0.62295439    -0.03200
Br1487     Br  0.28194150  0.18332304  0.80497272    -0.00400
Br1488     Br  0.33454338  0.15361237  0.74437235    -0.04700
C1489       C  0.31831822  0.17513971  0.32191358    -0.12100
C1490       C  0.32506797  0.16476394  0.30392572     0.03300
C1491       C  0.32548490  0.16324500  0.25840780    -0.12700
C1492       C  0.31937200  0.17187868  0.23036552     0.18200
C1493       C  0.31254205  0.18204889  0.24794442    -0.09700
C1494       C  0.31199360  0.18356228  0.29314483    -0.02700
H1495       H  0.33078119  0.15540973  0.24472197     0.04700
C1496       C  0.32039135  0.17046041  0.18265109     0.20200
H1497       H  0.30679081  0.19162168  0.30563488     0.09900
C1498       C  0.31005458  0.16544685  0.15917744    -0.16000
C1499       C  0.30992161  0.16552784  0.11339982     0.02900
C1500       C  0.32047520  0.17061191  0.09025778    -0.11400
C1501       C  0.33104846  0.17513589  0.11443406    -0.01400
C1502       C  0.33101001  0.17520091  0.16011319    -0.06600
H1503       H  0.30181389  0.16189781  0.17668760     0.05900
H1504       H  0.33924176  0.17914624  0.09789790     0.09300
Br1505     Br  0.30431973  0.19448718  0.21129538    -0.06300
Br1506     Br  0.33434841  0.15253805  0.33842040    -0.03200
Br1507     Br  0.29465196  0.15915008  0.08594633    -0.00400
Br1508     Br  0.34522971  0.18275117  0.19036779    -0.04700
C1509       C  0.35801555  0.15739356  0.45507872    -0.12100
C1510       C  0.35589570  0.14471460  0.46998185     0.03300
C1511       C  0.36482555  0.13524683  0.46172717    -0.12700
C1512       C  0.37603158  0.13792094  0.43900480     0.18200
C1513       C  0.37836149  0.15050642  0.42462469    -0.09700
C1514       C  0.36943915  0.16012626  0.43297822    -0.02700
H1515       H  0.36297038  0.12561028  0.47301351     0.04700
C1516       C  0.38462085  0.12712390  0.42910713     0.20200
H1517       H  0.37127230  0.16968185  0.42095638     0.09900
C1518       C  0.38026208  0.11760540  0.40053204    -0.16000
C1519       C  0.38737665  0.10659902  0.39312087     0.02900
C1520       C  0.39927174  0.10494034  0.41444744    -0.11400
C1521       C  0.40363836  0.11454654  0.44296515    -0.01400
C1522       C  0.39636665  0.12545219  0.45083351    -0.06600
H1523       H  0.37114382  0.11870353  0.38415146     0.05900
H1524       H  0.41264081  0.11344474  0.46006382     0.09300
Br1525     Br  0.39320823  0.15481846  0.39141234    -0.06300
Br1526     Br  0.34125766  0.13934191  0.50295923    -0.03200
Br1527     Br  0.38032977  0.09454322  0.35230562    -0.00400
Br1528     Br  0.40247154  0.13737785  0.49357864    -0.04700
C1529       C  0.06958286  0.06718819  0.92417456    -0.12100
C1530       C  0.06325325  0.05956568  0.89265339     0.03300
C1531       C  0.06601588  0.06117767  0.84821139    -0.12700
C1532       C  0.07527030  0.06998440  0.83440999     0.18200
C1533       C  0.08202253  0.07711001  0.86583932    -0.09700
C1534       C  0.07912723  0.07571231  0.91007616    -0.02700
H1535       H  0.06081034  0.05561230  0.82416142     0.04700
C1536       C  0.07717891  0.07216121  0.78708306     0.20200
H1537       H  0.08422338  0.08160532  0.93345687     0.09900
C1538       C  0.07437093  0.08415562  0.76937161    -0.16000
C1539       C  0.07518723  0.08647100  0.72442104     0.02900
C1540       C  0.07862085  0.07646227  0.69588617    -0.11400
C1541       C  0.08191020  0.06458787  0.71416860    -0.01400
C1542       C  0.08120159  0.06238889  0.75922104    -0.06600
H1543       H  0.07127140  0.09172656  0.79068965     0.05900
H1544       H  0.08461508  0.05677035  0.69327678     0.09300
Br1545     Br  0.09536448  0.08882107  0.85015316    -0.06300
Br1546     Br  0.05110118  0.04652605  0.90748124    -0.03200
Br1547     Br  0.07121862  0.10350972  0.70545976    -0.00400
Br1548     Br  0.08576497  0.04585446  0.78101246    -0.04700
C1549       C  0.07455585  0.07560914  0.19548151    -0.12100
C1550       C  0.07862089  0.06361510  0.21194839     0.03300
C1551       C  0.08067002  0.06196440  0.25690445    -0.12700
C1552       C  0.07879584  0.07196659  0.28617313     0.18200
C1553       C  0.07556571  0.08406915  0.26986676    -0.09700
C1554       C  0.07346913  0.08580541  0.22495693    -0.02700
H1555       H  0.08316221  0.05262533  0.26944668     0.04700
C1556       C  0.07855786  0.06913154  0.33356147     0.20200
H1557       H  0.07059944  0.09512222  0.21329004     0.09900
C1558       C  0.08880166  0.07265063  0.36059941    -0.16000
C1559       C  0.08843655  0.07041578  0.40592236     0.02900
C1560       C  0.07756504  0.06454959  0.42486118    -0.11400
C1561       C  0.06758341  0.06061804  0.39688859    -0.01400
C1562       C  0.06798131  0.06291581  0.35191637    -0.06600
H1563       H  0.09704760  0.07729012  0.34641003     0.05900
H1564       H  0.05908453  0.05620634  0.41010071     0.09300
Br1565     Br  0.07309152  0.09828010  0.30800598    -0.06300
Br1566     Br  0.08071068  0.04866361  0.17663292    -0.03200
Br1567     Br  0.10313994  0.07566660  0.43910974    -0.00400
Br1568     Br  0.05345199  0.05808161  0.31707920    -0.04700
C1569       C  0.21755420  0.17828118  0.52231137    -0.12100
C1570       C  0.22195708  0.17408565  0.48125434     0.03300
C1571       C  0.23498204  0.17478999  0.47169582    -0.12700
C1572       C  0.24376518  0.17948602  0.50257738     0.18200
C1573       C  0.23946475  0.18312516  0.54409443    -0.09700
C1574       C  0.22649027  0.18258444  0.55353458    -0.02700
H1575       H  0.23824912  0.17194451  0.43966188     0.04700
C1576       C  0.25729918  0.18107861  0.49058223     0.20200
H1577       H  0.22335985  0.18565078  0.58549214     0.09900
C1578       C  0.26227529  0.19339431  0.48483459    -0.16000
C1579       C  0.27514348  0.19538516  0.47500196     0.02900
C1580       C  0.28333793  0.18482079  0.47043052    -0.11400
C1581       C  0.27817301  0.17247391  0.47595194    -0.01400
C1582       C  0.26534280  0.17056538  0.48597599    -0.06600
H1583       H  0.25608765  0.20153382  0.48835611     0.05900
H1584       H  0.28415746  0.16417131  0.47302370     0.09300
Br1585     Br  0.25101811  0.18877379  0.58906841    -0.06300
Br1586     Br  0.21070165  0.16817366  0.43582165    -0.03200
Br1587     Br  0.28058277  0.21278035  0.46824587    -0.00400
Br1588     Br  0.25935174  0.15345312  0.49495986    -0.04700
C1589       C  0.14090776  0.15567487  0.54207347    -0.12100
C1590       C  0.14104286  0.14465515  0.56905002     0.03300
C1591       C  0.13122841  0.13560860  0.56585809    -0.12700
C1592       C  0.12111477  0.13713939  0.53617079     0.18200
C1593       C  0.12069078  0.14823083  0.51013041    -0.09700
C1594       C  0.13049161  0.15734412  0.51321789    -0.02700
H1595       H  0.13149258  0.12724186  0.58677272     0.04700
C1596       C  0.11103468  0.12713347  0.53413636     0.20200
H1597       H  0.13012306  0.16560014  0.49185180     0.09900
C1598       C  0.09887051  0.12975526  0.55030154    -0.16000
C1599       C  0.08962852  0.12011523  0.55432682     0.02900
C1600       C  0.09244455  0.10751524  0.54161038    -0.11400
C1601       C  0.10454185  0.10502321  0.52426155    -0.01400
C1602       C  0.11376485  0.11465764  0.52043705    -0.06600
H1603       H  0.09674714  0.13924953  0.56175900     0.05900
H1604       H  0.10695589  0.09544686  0.51450912     0.09300
Br1605     Br  0.10725183  0.15104242  0.46840249    -0.06300
Br1606     Br  0.15403129  0.14125328  0.61185162    -0.03200
Br1607     Br  0.07398527  0.12456111  0.58225271    -0.00400
Br1608     Br  0.13004078  0.11027164  0.49689164    -0.04700
C1609       C  0.27381056  0.18086060  0.98657188    -0.12100
C1610       C  0.26986071  0.18944926  0.01917971     0.03300
C1611       C  0.25702452  0.18994783  0.03117455    -0.12700
C1612       C  0.24792122  0.18198006  0.01132797     0.18200
C1613       C  0.25192334  0.17315833  0.97963036    -0.09700
C1614       C  0.26479356  0.17253925  0.96799637    -0.02700
H1615       H  0.25408068  0.19675300  0.05557825     0.04700
C1616       C  0.23421652  0.18384528  0.02110369     0.20200
H1617       H  0.26764278  0.16599735  0.94261573     0.09900
C1618       C  0.22828508  0.19500796  0.00637344    -0.16000
C1619       C  0.21517038  0.19680801  0.01135043     0.02900
C1620       C  0.20765294  0.18731118  0.03208856    -0.11400
C1621       C  0.21377545  0.17636005  0.04845086    -0.01400
C1622       C  0.22690446  0.17461242  0.04333498    -0.06600
H1623       H  0.23383983  0.20217967  0.98928736     0.05900
H1624       H  0.20827389  0.16896389  0.06457754     0.09300
Br1625     Br  0.24002795  0.16257882  0.94837678    -0.06300
Br1626     Br  0.28162451  0.20054430  0.04908828    -0.03200
Br1627     Br  0.20820734  0.21190308  0.98495716    -0.00400
Br1628     Br  0.23442842  0.15946179  0.06711999    -0.04700
C1629       C  0.18496782  0.16962942  0.67474038    -0.12100
C1630       C  0.19403127  0.17474257  0.70408271     0.03300
C1631       C  0.19275819  0.17264735  0.74910985    -0.12700
C1632       C  0.18249892  0.16550148  0.76553852     0.18200
C1633       C  0.17408866  0.15947700  0.73591137    -0.09700
C1634       C  0.17539557  0.16155453  0.69083574    -0.02700
H1635       H  0.19929865  0.17732337  0.77147514     0.04700
C1636       C  0.17941026  0.16662613  0.81259133     0.20200
H1637       H  0.16838526  0.15765441  0.66872283     0.09900
C1638       C  0.16840261  0.17333836  0.82386011    -0.16000
C1639       C  0.16600496  0.17654667  0.86728936     0.02900
C1640       C  0.17477457  0.17319533  0.90021744    -0.11400
C1641       C  0.18548250  0.16597054  0.88959260    -0.01400
C1642       C  0.18784668  0.16264893  0.84601468    -0.06600
H1643       H  0.16186773  0.17650753  0.79850865     0.05900
H1644       H  0.19218012  0.16322559  0.91502589     0.09300
Br1645     Br  0.16022162  0.14900466  0.75568026    -0.06300
Br1646     Br  0.20798576  0.18509272  0.68426668    -0.03200
Br1647     Br  0.15074092  0.18568597  0.88012458    -0.00400
Br1648     Br  0.20265578  0.15275707  0.83366671    -0.04700
C1649       C  0.16232683  0.17423061  0.16938557    -0.12100
C1650       C  0.17119862  0.16557577  0.18777930     0.03300
C1651       C  0.17225792  0.16426386  0.23335051    -0.12700
C1652       C  0.16465768  0.17141316  0.26136619     0.18200
C1653       C  0.15554067  0.17972039  0.24334938    -0.09700
C1654       C  0.15438013  0.18101068  0.19784447    -0.02700
H1655       H  0.17928917  0.15785077  0.24708874     0.04700
C1656       C  0.16725602  0.17111910  0.30903378     0.20200
H1657       H  0.14750344  0.18769209  0.18477703     0.09900
C1658       C  0.17503152  0.18067886  0.32695566    -0.16000
C1659       C  0.17710069  0.18135479  0.37211170     0.02900
C1660       C  0.17107336  0.17257136  0.40024689    -0.11400
C1661       C  0.16393617  0.16251534  0.38224653    -0.01400
C1662       C  0.16209766  0.16167368  0.33677745    -0.06600
H1663       H  0.17939712  0.18772574  0.30570642     0.05900
H1664       H  0.15932772  0.15566244  0.40361435     0.09300
Br1665     Br  0.14476062  0.18979109  0.27977899    -0.06300
Br1666     Br  0.18210952  0.15510400  0.15318976    -0.03200
Br1667     Br  0.18853909  0.19420193  0.39391979    -0.00400
Br1668     Br  0.15214374  0.14781050  0.31408973    -0.04700
C1669       C  0.13258304  0.15776896  0.01789335    -0.12100
C1670       C  0.13557189  0.14459273  0.02109283     0.03300
C1671       C  0.12586876  0.13541608  0.01987102    -0.12700
C1672       C  0.11312305  0.13881012  0.01365346     0.18200
C1673       C  0.11021630  0.15175826  0.00643963    -0.09700
C1674       C  0.11984946  0.16108652  0.00903128    -0.02700
H1675       H  0.12828320  0.12551114  0.02528748     0.04700
C1676       C  0.10305818  0.12891506  0.02037869     0.20200
H1677       H  0.11728290  0.17100015  0.00501022     0.09900
C1678       C  0.09434523  0.13058012  0.05449977    -0.16000
C1679       C  0.08563138  0.12099840  0.06582186     0.02900
C1680       C  0.08561773  0.10930612  0.04335463    -0.11400
C1681       C  0.09427105  0.10759603  0.00906355    -0.01400
C1682       C  0.10285813  0.11729510  0.99719643    -0.06600
H1683       H  0.09459386  0.13927032  0.07349341     0.05900
H1684       H  0.09426691  0.09871440  0.99114627     0.09300
Br1685     Br  0.09323740  0.15711861  0.99246952    -0.06300
Br1686     Br  0.15252887  0.13797762  0.02758596    -0.03200
Br1687     Br  0.07471627  0.12403691  0.11472265    -0.00400
Br1688     Br  0.11384013  0.11429209  0.94842377    -0.04700
C1689       C  0.42609513  0.97170583  0.86581890    -0.12100
C1690       C  0.41600197  0.97981775  0.85288064     0.03300
C1691       C  0.41702037  0.99303467  0.85944429    -0.12700
C1692       C  0.42791875  0.99845348  0.87880833     0.18200
C1693       C  0.43769015  0.99038450  0.89357447    -0.09700
C1694       C  0.43675833  0.97721742  0.88692082    -0.02700
H1695       H  0.40938912  0.99917160  0.84835383     0.04700
C1696       C  0.42907226  0.01254103  0.88245025     0.20200
H1697       H  0.44456747  0.97127398  0.89778022     0.09900
C1698       C  0.42361554  0.01873112  0.91814815    -0.16000
C1699       C  0.42440605  0.03200593  0.92224559     0.02900
C1700       C  0.43084163  0.03939566  0.89040630    -0.11400
C1701       C  0.43651414  0.03316835  0.85503146    -0.01400
C1702       C  0.43554214  0.01986447  0.85066949    -0.06600
H1703       H  0.41870663  0.01320271  0.94294486     0.05900
H1704       H  0.44137523  0.03868490  0.83010062     0.09300
Br1705     Br  0.45258300  0.99698184  0.92248554    -0.06300
Br1706     Br  0.40093914  0.97376226  0.82352092    -0.03200
Br1707     Br  0.41691020  0.03950633  0.97303329    -0.00400
Br1708     Br  0.44278576  0.01204218  0.80011837    -0.04700
C1709       C  0.43006554  0.96215249  0.33206680    -0.12100
C1710       C  0.41902752  0.96775417  0.31369364     0.03300
C1711       C  0.41709167  0.98091306  0.31733666    -0.12700
C1712       C  0.42604539  0.98867236  0.33878071     0.18200
C1713       C  0.43735713  0.98322476  0.35495285    -0.09700
C1714       C  0.43932750  0.97010490  0.35129410    -0.02700
H1715       H  0.40844220  0.98506502  0.30427634     0.04700
C1716       C  0.42315196  0.00222816  0.34712092     0.20200
H1717       H  0.44781345  0.96602506  0.36585346     0.09900
C1718       C  0.41642163  0.00540384  0.38502459    -0.16000
C1719       C  0.41505461  0.01814234  0.39756014     0.02900
C1720       C  0.42046962  0.02792484  0.37191686    -0.11400
C1721       C  0.42676805  0.02475746  0.33308718    -0.01400
C1722       C  0.42804789  0.01202904  0.32041144    -0.06600
H1723       H  0.41272567  0.99790848  0.40597976     0.05900
H1724       H  0.43101459  0.03220734  0.31318953     0.09300
Br1725     Br  0.44998390  0.99325758  0.38494063    -0.06300
Br1726     Br  0.40634620  0.95797499  0.28288623    -0.03200
Br1727     Br  0.40697636  0.02160018  0.45228553    -0.00400
Br1728     Br  0.43700828  0.00839726  0.26750815    -0.04700
C1729       C  0.42029193  0.93112954  0.47761270    -0.12100
C1730       C  0.41745077  0.94333847  0.49340225     0.03300
C1731       C  0.41549523  0.94513931  0.53823710    -0.12700
C1732       C  0.41687327  0.93498285  0.56798971     0.18200
C1733       C  0.41966816  0.92274447  0.55193838    -0.09700
C1734       C  0.42114526  0.92087600  0.50694905    -0.02700
H1735       H  0.41340542  0.95459087  0.55016767     0.04700
C1736       C  0.41640665  0.93743714  0.61571810     0.20200
H1737       H  0.42368704  0.91152829  0.49506976     0.09900
C1738       C  0.40703503  0.93150628  0.64134393    -0.16000
C1739       C  0.40736772  0.93226948  0.68719341     0.02900
C1740       C  0.41722596  0.93926718  0.70828333    -0.11400
C1741       C  0.42605491  0.94588485  0.68194587    -0.01400
C1742       C  0.42578896  0.94494029  0.63639027    -0.06600
H1743       H  0.39969173  0.92582570  0.62558111     0.05900
H1744       H  0.43368942  0.95137917  0.69680280     0.09300
Br1745     Br  0.42287139  0.90856926  0.59031555    -0.06300
Br1746     Br  0.41659076  0.95783566  0.45496144    -0.03200
Br1747     Br  0.39442637  0.92290693  0.71795183    -0.00400
Br1748     Br  0.43923624  0.95314585  0.60439881    -0.04700
C1749       C  0.41950999  0.91708805  0.20927119    -0.12100
C1750       C  0.40733117  0.91985240  0.19222745     0.03300
C1751       C  0.40564000  0.92147192  0.14695628    -0.12700
C1752       C  0.41598590  0.92044410  0.11844370     0.18200
C1753       C  0.42812934  0.91763328  0.13552227    -0.09700
C1754       C  0.42978691  0.91589268  0.18055857    -0.02700
H1755       H  0.39623387  0.92343814  0.13390914     0.04700
C1756       C  0.41403891  0.92188212  0.07075557     0.20200
H1757       H  0.43920815  0.91383025  0.19332835     0.09900
C1758       C  0.41664182  0.93363660  0.05061939    -0.16000
C1759       C  0.41676644  0.93479049  0.00488239     0.02900
C1760       C  0.41421391  0.92401168  0.97867738    -0.11400
C1761       C  0.41106086  0.91240735  0.99913404    -0.01400
C1762       C  0.41093859  0.91129321  0.04473834    -0.06600
H1763       H  0.41919381  0.94178165  0.07055544     0.05900
H1764       H  0.40916122  0.90402636  0.97951462     0.09300
Br1765     Br  0.44271072  0.91606585  0.09846039    -0.06300
Br1766     Br  0.39266845  0.92072013  0.22910437    -0.03200
Br1767     Br  0.42200493  0.95086746  0.98046638    -0.00400
Br1768     Br  0.40738672  0.89492219  0.07017750    -0.04700
C1769       C  0.35505088  0.84454768  0.81444719    -0.12100
C1770       C  0.35393627  0.85558682  0.84067260     0.03300
C1771       C  0.36338218  0.86504931  0.83967657    -0.12700
C1772       C  0.37402089  0.86405722  0.81246630     0.18200
C1773       C  0.37526787  0.85298639  0.78673138    -0.09700
C1774       C  0.36589846  0.84334682  0.78813855    -0.02700
H1775       H  0.36244998  0.87326738  0.86069547     0.04700
C1776       C  0.38382312  0.87447608  0.81321695     0.20200
H1777       H  0.36696342  0.83500836  0.76778729     0.09900
C1778       C  0.39633524  0.87175617  0.82664246    -0.16000
C1779       C  0.40550533  0.88145011  0.83187766     0.02900
C1780       C  0.40223521  0.89433726  0.82393973    -0.11400
C1781       C  0.38973306  0.89698711  0.80989218    -0.01400
C1782       C  0.38062749  0.88728500  0.80440893    -0.06600
H1783       H  0.39889016  0.86203183  0.83459226     0.05900
H1784       H  0.38692990  0.90673576  0.80355978     0.09300
Br1785     Br  0.38926274  0.85080915  0.74758529    -0.06300
Br1786     Br  0.34015533  0.85822550  0.88070019    -0.03200
Br1787     Br  0.42190356  0.87634632  0.85354179    -0.00400
Br1788     Br  0.36395697  0.89214091  0.78456000    -0.04700
C1789       C  0.30978535  0.83538037  0.44717589    -0.12100
C1790       C  0.32093039  0.84043928  0.46678032     0.03300
C1791       C  0.32162910  0.84165782  0.51229959    -0.12700
C1792       C  0.31143854  0.83778875  0.53861197     0.18200
C1793       C  0.30005139  0.83353801  0.51898137    -0.09700
C1794       C  0.29928762  0.83238696  0.47355915    -0.02700
H1795       H  0.33049184  0.84469304  0.52744874     0.04700
C1796       C  0.31366237  0.83566923  0.58563556     0.20200
H1797       H  0.29068474  0.82848570  0.45896788     0.09900
C1798       C  0.30901927  0.84427618  0.61657081    -0.16000
C1799       C  0.30980872  0.84145648  0.66141617     0.02900
C1800       C  0.31513388  0.82982465  0.67520670    -0.11400
C1801       C  0.32010431  0.82146644  0.64419322    -0.01400
C1802       C  0.31949278  0.82433692  0.59973968    -0.06600
H1803       H  0.30444113  0.85296629  0.60574442     0.05900
H1804       H  0.32430249  0.81253517  0.65460520     0.09300
Br1805     Br  0.28584107  0.82785061  0.55322347    -0.06300
Br1806     Br  0.33614434  0.84402638  0.43437188    -0.03200
Br1807     Br  0.30256055  0.85316006  0.70211342    -0.00400
Br1808     Br  0.32612831  0.81214004  0.55932053    -0.04700
C1809       C  0.31802029  0.83419505  0.17611848    -0.12100
C1810       C  0.32857532  0.83865456  0.15222019     0.03300
C1811       C  0.32818080  0.83859435  0.10651247    -0.12700
C1812       C  0.31744354  0.83398169  0.08402885     0.18200
C1813       C  0.30666402  0.83006017  0.10782173    -0.09700
C1814       C  0.30693715  0.83040466  0.15365336    -0.02700
H1815       H  0.33652330  0.84157889  0.08839069     0.04700
C1816       C  0.31851964  0.83155099  0.03666502     0.20200
H1817       H  0.29884517  0.82676964  0.17174693     0.09900
C1818       C  0.32572553  0.82111236  0.02348317    -0.16000
C1819       C  0.32755028  0.81851146  0.97921916     0.02900
C1820       C  0.32202935  0.82648362  0.94687752    -0.11400
C1821       C  0.31465261  0.83689034  0.96030133    -0.01400
C1822       C  0.31297483  0.83952536  0.00482982    -0.06600
H1823       H  0.32998038  0.81492711  0.04798471     0.05900
H1824       H  0.31040778  0.84316671  0.93609632     0.09300
Br1825     Br  0.29198486  0.82285052  0.07935191    -0.06300
Br1826     Br  0.34387267  0.84458262  0.18050299    -0.03200
Br1827     Br  0.33722206  0.80357141  0.96606940    -0.00400
Br1828     Br  0.30349666  0.85431130  0.02081460    -0.04700
C1829       C  0.35218241  0.84509906  0.32345812    -0.12100
C1830       C  0.35197778  0.85862213  0.32359325     0.03300
C1831       C  0.36325699  0.86553124  0.33064958    -0.12700
C1832       C  0.37490047  0.85938144  0.33749997     0.18200
C1833       C  0.37516216  0.84599317  0.33809464    -0.09700
C1834       C  0.36392726  0.83901212  0.33108571    -0.02700
H1835       H  0.36297407  0.87584764  0.33033511     0.04700
C1836       C  0.38657750  0.86724294  0.34353479     0.20200
H1837       H  0.36445088  0.82871531  0.33152770     0.09900
C1838       C  0.38785608  0.87481928  0.38113108    -0.16000
C1839       C  0.39789751  0.88360764  0.38525345     0.02900
C1840       C  0.40698126  0.88475021  0.35181798    -0.11400
C1841       C  0.40600870  0.87682406  0.31510311    -0.01400
C1842       C  0.39581704  0.86826019  0.31042153    -0.06600
H1843       H  0.38076050  0.87421059  0.40662129     0.05900
H1844       H  0.41270509  0.87794276  0.28851829     0.09300
Br1845     Br  0.39058124  0.83681056  0.34929152    -0.06300
Br1846     Br  0.33688748  0.86857974  0.31456881    -0.03200
Br1847     Br  0.39866885  0.89415939  0.43628880    -0.00400
Br1848     Br  0.39415697  0.85927334  0.25609129    -0.04700
C1849       C  0.06819462  0.96438828  0.64352144    -0.12100
C1850       C  0.07641500  0.97271469  0.66688381     0.03300
C1851       C  0.07703735  0.98566618  0.65553364    -0.12700
C1852       C  0.06960560  0.99057956  0.62118117     0.18200
C1853       C  0.06170251  0.98224744  0.59708683    -0.09700
C1854       C  0.06096013  0.96932945  0.60856350    -0.02700
H1855       H  0.08313064  0.99200842  0.67428919     0.04700
C1856       C  0.06991794  0.00445615  0.61158341     0.20200
H1857       H  0.05470851  0.96310336  0.58995983     0.09900
C1858       C  0.08030377  0.00977907  0.58930067    -0.16000
C1859       C  0.08048131  0.02271023  0.57726276     0.02900
C1860       C  0.07001533  0.03059797  0.58739253    -0.11400
C1861       C  0.05985835  0.02524403  0.61125268    -0.01400
C1862       C  0.05980289  0.01238451  0.62361102    -0.06600
H1863       H  0.08819503  0.00376074  0.58033970     0.05900
H1864       H  0.05184805  0.03108585  0.62034437     0.09300
Br1865     Br  0.05186647  0.98809967  0.54788443    -0.06300
Br1866     Br  0.08630426  0.96731169  0.71671861    -0.03200
Br1867     Br  0.09500707  0.02860870  0.54502532    -0.00400
Br1868     Br  0.04576203  0.00605058  0.65736297    -0.04700
C1869       C  0.06150469  0.96945316  0.15143462    -0.12100
C1870       C  0.05212983  0.97366359  0.12136716     0.03300
C1871       C  0.05190605  0.98641168  0.10787423    -0.12700
C1872       C  0.06099847  0.99512231  0.12335178     0.18200
C1873       C  0.07061764  0.99089955  0.15218959    -0.09700
C1874       C  0.07083987  0.97813670  0.16593995    -0.02700
H1875       H  0.04464262  0.98954286  0.08494843     0.04700
C1876       C  0.06026600  0.00856254  0.10884328     0.20200
H1877       H  0.07815190  0.97506462  0.18875710     0.09900
C1878       C  0.05255940  0.01705749  0.13180412    -0.16000
C1879       C  0.05154154  0.02981481  0.11857863     0.02900
C1880       C  0.05837463  0.03424262  0.08186109    -0.11400
C1881       C  0.06610265  0.02570614  0.05902226    -0.01400
C1882       C  0.06696513  0.01292481  0.07193791    -0.06600
H1883       H  0.04738398  0.01375786  0.16029164     0.05900
H1884       H  0.07137232  0.02896310  0.03067684     0.09300
Br1885     Br  0.08350234  0.00231034  0.17381406    -0.06300
Br1886     Br  0.03985990  0.96232007  0.09542023    -0.03200
Br1887     Br  0.04137545  0.04095019  0.15343985    -0.00400
Br1888     Br  0.07723965  0.00167118  0.03804809    -0.04700
C1889       C  0.07100595  0.92495957  0.04071435    -0.12100
C1890       C  0.06535644  0.91617177  0.01098965     0.03300
C1891       C  0.06648163  0.91810702  0.96573621    -0.12700
C1892       C  0.07313070  0.92860161  0.94881414     0.18200
C1893       C  0.07893169  0.93723018  0.97786569    -0.09700
C1894       C  0.07788405  0.93536451  0.02318288    -0.02700
H1895       H  0.06190478  0.91148517  0.94342888     0.04700
C1896       C  0.07304845  0.93079728  0.90082869     0.20200
H1897       H  0.08229497  0.94228581  0.04475030     0.09900
C1898       C  0.06226502  0.93622896  0.88137185    -0.16000
C1899       C  0.06122129  0.93760633  0.83585610     0.02900
C1900       C  0.07122882  0.93345629  0.80843569    -0.11400
C1901       C  0.08219307  0.92829239  0.82852709    -0.01400
C1902       C  0.08312980  0.92692087  0.87412743    -0.06600
H1903       H  0.05443841  0.93915992  0.90184324     0.05900
H1904       H  0.08997770  0.92494580  0.80869527     0.09300
Br1905     Br  0.08792883  0.95197188  0.95694784    -0.06300
Br1906     Br  0.05548356  0.90155400  0.02845529    -0.03200
Br1907     Br  0.04543987  0.94457010  0.81473715    -0.00400
Br1908     Br  0.09808008  0.91916460  0.89848593    -0.04700
C1909       C  0.07861048  0.91818819  0.54148640    -0.12100
C1910       C  0.08759290  0.92686968  0.52347638     0.03300
C1911       C  0.08743744  0.92959940  0.47843119    -0.12700
C1912       C  0.07848282  0.92387169  0.45047044     0.18200
C1913       C  0.07008576  0.91464648  0.46768092    -0.09700
C1914       C  0.07021781  0.91185306  0.51265989    -0.02700
H1915       H  0.09410125  0.93652743  0.46533744     0.04700
C1916       C  0.07760333  0.92804044  0.40394709     0.20200
H1917       H  0.06323634  0.90518448  0.52537739     0.09900
C1918       C  0.08626577  0.92342428  0.37330937    -0.16000
C1919       C  0.08507265  0.92643736  0.32857866     0.02900
C1920       C  0.07507353  0.93448736  0.31370078    -0.11400
C1921       C  0.06679996  0.93952706  0.34525023    -0.01400
C1922       C  0.06795203  0.93633697  0.38968079    -0.06600
H1923       H  0.09376736  0.91708455  0.38410053     0.05900
H1924       H  0.05902577  0.94563596  0.33526925     0.09300
Br1925     Br  0.05792163  0.90601474  0.43101903    -0.06300
Br1926     Br  0.10034668  0.93541490  0.55813056    -0.03200
Br1927     Br  0.09713770  0.91854178  0.29043557    -0.00400
Br1928     Br  0.05584254  0.94324441  0.42969667    -0.04700
C1929       C  0.21204534  0.81768105  0.77961969    -0.12100
C1930       C  0.21892428  0.82700315  0.80344159     0.03300
C1931       C  0.23217389  0.82605246  0.80795275    -0.12700
C1932       C  0.23884376  0.81592353  0.78932250     0.18200
C1933       C  0.23206630  0.80667500  0.76533737    -0.09700
C1934       C  0.21884080  0.80764658  0.76051704    -0.02700
H1935       H  0.23732602  0.83321473  0.82654507     0.04700
C1936       C  0.25290657  0.81549396  0.79385367     0.20200
H1937       H  0.21381427  0.80042752  0.74193384     0.09900
C1938       C  0.25869501  0.80623704  0.82066475    -0.16000
C1939       C  0.27200260  0.80575132  0.82528844     0.02900
C1940       C  0.27970594  0.81475559  0.80327038    -0.11400
C1941       C  0.27382836  0.82405197  0.77689010    -0.01400
C1942       C  0.26061242  0.82439975  0.77177352    -0.06600
H1943       H  0.25283442  0.79939065  0.83806760     0.05900
H1944       H  0.27958181  0.83089099  0.75899346     0.09300
Br1945     Br  0.24049396  0.79264972  0.73816254    -0.06300
Br1946     Br  0.21086217  0.84077633  0.83324779    -0.03200
Br1947     Br  0.27908219  0.79304212  0.86350741    -0.00400
Br1948     Br  0.25353122  0.83681303  0.73238399    -0.04700
C1949       C  0.13407774  0.84095593  0.76795422    -0.12100
C1950       C  0.12349537  0.83822306  0.74059711     0.03300
C1951       C  0.11436728  0.84760017  0.73229690    -0.12700
C1952       C  0.11555021  0.85977119  0.75054786     0.18200
C1953       C  0.12575573  0.86234202  0.77937748    -0.09700
C1954       C  0.13494376  0.85300023  0.78763989    -0.02700
H1955       H  0.10658342  0.84557615  0.70985675     0.04700
C1956       C  0.10668532  0.86991271  0.73607726     0.20200
H1957       H  0.14304649  0.85530282  0.80835480     0.09900
C1958       C  0.09714331  0.87416842  0.76431995    -0.16000
C1959       C  0.08863955  0.88371363  0.75099428     0.02900
C1960       C  0.08966979  0.88917582  0.70892516    -0.11400
C1961       C  0.09930283  0.88500490  0.68093116    -0.01400
C1962       C  0.10769214  0.87538143  0.69398978    -0.06600
H1963       H  0.09635291  0.87008958  0.79684441     0.05900
H1964       H  0.10023155  0.88918481  0.64858875     0.09300
Br1965     Br  0.12801407  0.87875132  0.80567753    -0.06300
Br1966     Br  0.12165237  0.82251997  0.70917733    -0.03200
Br1967     Br  0.07630624  0.88957229  0.79213563    -0.00400
Br1968     Br  0.12054010  0.87016274  0.65354633    -0.04700
C1969       C  0.27351510  0.82462835  0.31328680    -0.12100
C1970       C  0.26690152  0.83304522  0.28537376     0.03300
C1971       C  0.25355928  0.83263647  0.28381982    -0.12700
C1972       C  0.24667498  0.82429270  0.31110474     0.18200
C1973       C  0.25332386  0.81651060  0.34101693    -0.09700
C1974       C  0.26659921  0.81657432  0.34136278    -0.02700
H1975       H  0.24854385  0.83867602  0.26067146     0.04700
C1976       C  0.23267771  0.82312989  0.30619370     0.20200
H1977       H  0.27157380  0.81034515  0.36404156     0.09900
C1978       C  0.22745596  0.81141598  0.29300223    -0.16000
C1979       C  0.21430799  0.80975882  0.28799463     0.02900
C1980       C  0.20603622  0.82001461  0.29657891    -0.11400
C1981       C  0.21134588  0.83176897  0.30946208    -0.01400
C1982       C  0.22450356  0.83340637  0.31406126    -0.06600
H1983       H  0.23370752  0.80353656  0.28590797     0.05900
H1984       H  0.20522842  0.83981548  0.31567998     0.09300
Br1985     Br  0.24470207  0.80590252  0.38294594    -0.06300
Br1986     Br  0.27560164  0.84469337  0.24719120    -0.03200
Br1987     Br  0.20862286  0.79355316  0.26606829    -0.00400
Br1988     Br  0.23076927  0.84981329  0.33169266    -0.04700
C1989       C  0.17647295  0.82901706  0.14107140    -0.12100
C1990       C  0.18309254  0.82036445  0.11378522     0.03300
C1991       C  0.18291388  0.82203164  0.06842663    -0.12700
C1992       C  0.17635216  0.83211735  0.04893713     0.18200
C1993       C  0.17018341  0.84100347  0.07548520    -0.09700
C1994       C  0.17029372  0.83944165  0.12113045    -0.02700
H1995       H  0.18767556  0.81517494  0.04793117     0.04700
C1996       C  0.17538724  0.83241922  0.00070910     0.20200
H1997       H  0.16519299  0.84621937  0.14090219     0.09900
C1998       C  0.16465641  0.82691674  0.98061990    -0.16000
C1999       C  0.16434133  0.82490778  0.93541333     0.02900
C2000       C  0.17489841  0.82836402  0.90979982    -0.11400
C2001       C  0.18542738  0.83430559  0.92954064    -0.01400
C2002       C  0.18571628  0.83638113  0.97477566    -0.06600
H2003       H  0.15673641  0.82369929  0.00041725     0.05900
H2004       H  0.19357540  0.83697225  0.91003026     0.09300
Br2005     Br  0.16138570  0.85525344  0.05049944    -0.06300
Br2006     Br  0.19236856  0.80571026  0.13426454    -0.03200
Br2007     Br  0.14958452  0.81684552  0.91026699    -0.00400
Br2008     Br  0.20053551  0.84421805  0.00014844    -0.04700
C2009       C  0.15925316  0.83266100  0.40916128    -0.12100
C2010       C  0.15133177  0.82595446  0.43895618     0.03300
C2011       C  0.15276954  0.82784635  0.48392788    -0.12700
C2012       C  0.16202095  0.83619150  0.50058062     0.18200
C2013       C  0.16975543  0.84306906  0.47131930    -0.09700
C2014       C  0.16829940  0.84132328  0.42609732    -0.02700
H2015       H  0.14695759  0.82232294  0.50633327     0.04700
C2016       C  0.16420057  0.83634081  0.54850864     0.20200
H2017       H  0.17444921  0.84661435  0.40415420     0.09900
C2018       C  0.17530311  0.83073346  0.56550377    -0.16000
C2019       C  0.17662357  0.82829217  0.61042568     0.02900
C2020       C  0.16672456  0.83149875  0.63900371    -0.11400
C2021       C  0.15586951  0.83761919  0.62226697    -0.01400
C2022       C  0.15456593  0.84009604  0.57745089    -0.06600
H2023       H  0.18263635  0.82754346  0.54341905     0.05900
H2024       H  0.14817456  0.84009031  0.64402710     0.09300
Br2025     Br  0.18246064  0.85485177  0.49172400    -0.06300
Br2026     Br  0.13909258  0.81316262  0.42227267    -0.03200
Br2027     Br  0.19131008  0.81910926  0.63029636    -0.00400
Br2028     Br  0.13927951  0.84819247  0.55710325    -0.04700
C2029       C  0.08674454  0.89462370  0.20034479    -0.12100
C2030       C  0.09981272  0.89470364  0.18921562     0.03300
C2031       C  0.10761689  0.88476568  0.20314004    -0.12700
C2032       C  0.10275046  0.87463341  0.22780479     0.18200
C2033       C  0.08986498  0.87450597  0.23955565    -0.09700
C2034       C  0.08196428  0.88444403  0.22579184    -0.02700
H2035       H  0.11756859  0.88480866  0.19398943     0.04700
C2036       C  0.11137736  0.86414243  0.23910274     0.20200
H2037       H  0.07204485  0.88419655  0.23518327     0.09900
C2038       C  0.11831341  0.86464978  0.27836863    -0.16000
C2039       C  0.12800266  0.85590679  0.28681556     0.02900
C2040       C  0.13086203  0.84655592  0.25543507    -0.11400
C2041       C  0.12350908  0.84570417  0.21709420    -0.01400
C2042       C  0.11386814  0.85449554  0.20862322    -0.06600
H2043       H  0.11637520  0.87204376  0.30198291     0.05900
H2044       H  0.12552030  0.83842276  0.19313424     0.09300
Br2045     Br  0.08269822  0.86089271  0.27368209    -0.06300
Br2046     Br  0.10779403  0.90755815  0.15357258    -0.03200
Br2047     Br  0.13669333  0.85685669  0.34227279    -0.00400
Br2048     Br  0.10461178  0.85333909  0.15441146    -0.04700
C2049       C  0.96885413  0.07259922  0.74826774    -0.12100
C2050       C  0.97149637  0.08058592  0.71178097     0.03300
C2051       C  0.98290577  0.07919559  0.68897327    -0.12700
C2052       C  0.99178670  0.06993182  0.70126609     0.18200
C2053       C  0.98895824  0.06158845  0.73600051    -0.09700
C2054       C  0.97760939  0.06295977  0.75913336    -0.02700
H2055       H  0.98502805  0.08560663  0.66204551     0.04700
C2056       C  0.00415768  0.06954594  0.67853256     0.20200
H2057       H  0.97575863  0.05657633  0.78635430     0.09900
C2058       C  0.01511760  0.07405614  0.70001157    -0.16000
C2059       C  0.02684167  0.07468553  0.67850413     0.02900
C2060       C  0.02770569  0.07078257  0.63426504    -0.11400
C2061       C  0.01669229  0.06595589  0.61345322    -0.01400
C2062       C  0.00503602  0.06534172  0.63510669    -0.06600
H2063       H  0.01449578  0.07726372  0.73358920     0.05900
H2064       H  0.01702095  0.06290835  0.57964558     0.09300
Br2065     Br  0.00033290  0.04818925  0.75285271    -0.06300
Br2066     Br  0.96057654  0.09411983  0.69221617    -0.03200
Br2067     Br  0.04113438  0.08071920  0.71223032    -0.00400
Br2068     Br  0.99054582  0.05864656  0.60413399    -0.04700
C2069       C  0.96690643  0.10000089  0.89450620    -0.12100
C2070       C  0.96987173  0.09839089  0.93929307     0.03300
C2071       C  0.98205544  0.10138928  0.95477296    -0.12700
C2072       C  0.99132455  0.10673160  0.92713045     0.18200
C2073       C  0.98784733  0.10977213  0.88356740    -0.09700
C2074       C  0.97576962  0.10630213  0.86753156    -0.02700
H2075       H  0.98445043  0.09893679  0.98829867     0.04700
C2076       C  0.00478227  0.10719162  0.94297302     0.20200
H2077       H  0.97362664  0.10784323  0.83317226     0.09900
C2078       C  0.01412168  0.10073230  0.91912953    -0.16000
C2079       C  0.02596626  0.09790513  0.93782445     0.02900
C2080       C  0.02836784  0.10086121  0.98217068    -0.11400
C2081       C  0.01977844  0.10880497  0.00392665    -0.01400
C2082       C  0.00807336  0.11199589  0.98470463    -0.06600
H2083       H  0.01194584  0.09709212  0.88682658     0.05900
H2084       H  0.02156091  0.11152333  0.03758431     0.09300
Br2085     Br  0.99931159  0.11831398  0.84431646    -0.06300
Br2086     Br  0.95778311  0.09193151  0.98096462    -0.03200
Br2087     Br  0.03828674  0.08962923  0.90162479    -0.00400
Br2088     Br  0.99658559  0.12209041  0.01842555    -0.04700
C2089       C  0.01756568  0.07894498  0.12778481    -0.12100
C2090       C  0.00654962  0.08243473  0.10383860     0.03300
C2091       C  0.99567152  0.08647115  0.12582706    -0.12700
C2092       C  0.99488170  0.08595057  0.17175357     0.18200
C2093       C  0.00532424  0.08075907  0.19528442    -0.09700
C2094       C  0.01673197  0.07803269  0.17356412    -0.02700
H2095       H  0.98765201  0.08982543  0.10660561     0.04700
C2096       C  0.98260219  0.08947844  0.19320999     0.20200
H2097       H  0.02487146  0.07476172  0.19237886     0.09900
C2098       C  0.97112265  0.08497310  0.17497703    -0.16000
C2099       C  0.95954558  0.08671283  0.19616526     0.02900
C2100       C  0.95929866  0.09212517  0.23841021    -0.11400
C2101       C  0.97042909  0.09809129  0.25414392    -0.01400
C2102       C  0.98192393  0.09722865  0.23096560    -0.06600
H2103       H  0.97113271  0.07965115  0.14470841     0.05900
H2104       H  0.97040924  0.10276988  0.28566668     0.09300
Br2105     Br  0.00413788  0.07562674  0.25562433    -0.06300
Br2106     Br  0.00545285  0.08178126  0.04114657    -0.03200
Br2107     Br  0.94441276  0.08090768  0.16654173    -0.00400
Br2108     Br  0.99615172  0.10718770  0.25130423    -0.04700
C2109       C  0.03200801  0.09048513  0.48150595    -0.12100
C2110       C  0.03072440  0.08918494  0.43581269     0.03300
C2111       C  0.01858159  0.08860217  0.41666637    -0.12700
C2112       C  0.00762786  0.08932346  0.44255219     0.18200
C2113       C  0.00894455  0.09171152  0.48776850    -0.09700
C2114       C  0.02107796  0.09244427  0.50670369    -0.02700
H2115       H  0.01767061  0.08699936  0.38175676     0.04700
C2116       C  0.99506725  0.08626065  0.42280574     0.20200
H2117       H  0.02188637  0.09321483  0.54199830     0.09900
C2118       C  0.99252076  0.07372701  0.40908906    -0.16000
C2119       C  0.98054103  0.07026622  0.39212823     0.02900
C2120       C  0.97079796  0.07940380  0.38955490    -0.11400
C2121       C  0.97352754  0.09199661  0.40248262    -0.01400
C2122       C  0.98553527  0.09549739  0.41834653    -0.06600
H2123       H  0.99985873  0.06656714  0.41209826     0.05900
H2124       H  0.96633606  0.09929840  0.39922971     0.09300
Br2125     Br  0.99457568  0.09233313  0.52619867    -0.06300
Br2126     Br  0.04528430  0.08767592  0.39875909    -0.03200
Br2127     Br  0.97792381  0.05291908  0.37487492    -0.00400
Br2128     Br  0.98860021  0.11310116  0.43171236    -0.04700
C2129       C  0.91755892  0.07876140  0.47232630    -0.12100
C2130       C  0.90699548  0.07230259  0.49084549     0.03300
C2131       C  0.90569469  0.07164315  0.53635770    -0.12700
C2132       C  0.91473407  0.07730030  0.56402298     0.18200
C2133       C  0.92531698  0.08363334  0.54581121    -0.09700
C2134       C  0.92659048  0.08442693  0.50035091    -0.02700
H2135       H  0.89752372  0.06679206  0.55027810     0.04700
C2136       C  0.91301419  0.07664631  0.61187206     0.20200
H2137       H  0.93487259  0.08919865  0.48689062     0.09900
C2138       C  0.91575908  0.06530264  0.63441627    -0.16000
C2139       C  0.91632579  0.06505287  0.68027413     0.02900
C2140       C  0.91417268  0.07633902  0.70386020    -0.11400
C2141       C  0.91032832  0.08734531  0.68116264    -0.01400
C2142       C  0.90966476  0.08754418  0.63555311    -0.06600
H2143       H  0.91817957  0.05683186  0.61626253     0.05900
H2144       H  0.90850386  0.09604587  0.69892089     0.09300
Br2145     Br  0.93850495  0.09091760  0.58185494    -0.06300
Br2146     Br  0.89367344  0.06465043  0.45631428    -0.03200
Br2147     Br  0.92157724  0.04953992  0.70837028    -0.00400
Br2148     Br  0.90487615  0.10311179  0.60684089    -0.04700
C2149       C  0.91439212  0.06361846  0.20529171    -0.12100
C2150       C  0.91124711  0.07482810  0.18195917     0.03300
C2151       C  0.91092785  0.07471490  0.13611630    -0.12700
C2152       C  0.91317171  0.06347125  0.11276403     0.18200
C2153       C  0.91492894  0.05201290  0.13645809    -0.09700
C2154       C  0.91580978  0.05222250  0.18219763    -0.02700
H2155       H  0.90970845  0.08363171  0.11867103     0.04700
C2156       C  0.91563677  0.06425385  0.06481628     0.20200
H2157       H  0.91795226  0.04349751  0.19976656     0.09900
C2158       C  0.92729030  0.05976296  0.04928808    -0.16000
C2159       C  0.93053601  0.06069355  0.00511804     0.02900
C2160       C  0.92230385  0.06700417  0.97512227    -0.11400
C2161       C  0.91059341  0.07153153  0.99081980    -0.01400
C2162       C  0.90716246  0.07006598  0.03490488    -0.06600
H2163       H  0.93400061  0.05544317  0.07191129     0.05900
H2164       H  0.90396129  0.07615211  0.96866676     0.09300
Br2165     Br  0.91637201  0.03583173  0.10799913    -0.06300
Br2166     Br  0.90894817  0.09094793  0.21022398    -0.03200
Br2167     Br  0.94621048  0.05258168  0.98939704    -0.00400
Br2168     Br  0.89057422  0.07565335  0.05195980    -0.04700
C2169       C  0.85533400  0.15494039  0.80600640    -0.12100
C2170       C  0.85493489  0.14181417  0.79494329     0.03300
C2171       C  0.86514967  0.13387959  0.80582798    -0.12700
C2172       C  0.87593601  0.13851611  0.82795225     0.18200
C2173       C  0.87642382  0.15151211  0.83917933    -0.09700
C2174       C  0.86621951  0.15956122  0.82827604    -0.02700
H2175       H  0.86476527  0.12396170  0.79622321     0.04700
C2176       C  0.88670455  0.12963604  0.83659205     0.20200
H2177       H  0.86684775  0.16951162  0.83724391     0.09900
C2178       C  0.89836083  0.13161484  0.81531898    -0.16000
C2179       C  0.90803547  0.12246050  0.81718794     0.02900
C2180       C  0.90611105  0.11094438  0.84062126    -0.11400
C2181       C  0.89463640  0.10924693  0.86334509    -0.01400
C2182       C  0.88503627  0.11843646  0.86164738    -0.06600
H2183       H  0.89971316  0.14006818  0.79535566     0.05900
H2184       H  0.89297348  0.10053730  0.88167652     0.09300
Br2185     Br  0.89069889  0.15862964  0.87024379    -0.06300
Br2186     Br  0.84121102  0.13382804  0.76311549    -0.03200
Br2187     Br  0.92297136  0.12577727  0.78299720    -0.00400
Br2188     Br  0.86970536  0.11511939  0.89361440    -0.04700
C2189       C  0.82866640  0.16751747  0.64030014    -0.12100
C2190       C  0.83693997  0.17354459  0.60994633     0.03300
C2191       C  0.83451761  0.17255489  0.56472180    -0.12700
C2192       C  0.82415326  0.16543909  0.54863281     0.18200
C2193       C  0.81656872  0.15861065  0.57837536    -0.09700
C2194       C  0.81881225  0.15970178  0.62347876    -0.02700
H2195       H  0.84050497  0.17774102  0.54195099     0.04700
C2196       C  0.82058108  0.16635609  0.50150042     0.20200
H2197       H  0.81243806  0.15473352  0.64554436     0.09900
C2198       C  0.82403873  0.15679039  0.47202282    -0.16000
C2199       C  0.82103983  0.15778395  0.42711135     0.02900
C2200       C  0.81449417  0.16862759  0.41086192    -0.11400
C2201       C  0.81062397  0.17787454  0.44126426    -0.01400
C2202       C  0.81358481  0.17681154  0.48583907    -0.06600
H2203       H  0.82919738  0.14856173  0.48397451     0.05900
H2204       H  0.80556180  0.18627253  0.43032035     0.09300
Br2205     Br  0.80251701  0.14830576  0.55885481    -0.06300
Br2206     Br  0.85132682  0.18378159  0.62707808    -0.03200
Br2207     Br  0.82615280  0.14393891  0.39050558    -0.00400
Br2208     Br  0.80793362  0.18999522  0.52428873    -0.04700
C2209       C  0.80840964  0.17165512  0.90489741    -0.12100
C2210       C  0.81326249  0.16070566  0.92660548     0.03300
C2211       C  0.81434137  0.16049642  0.97242682    -0.12700
C2212       C  0.81047157  0.17087994  0.99757185     0.18200
C2213       C  0.80466138  0.18128913  0.97646759    -0.09700
C2214       C  0.80368211  0.18162456  0.93072389    -0.02700
H2215       H  0.81861085  0.15233352  0.98849266     0.04700
C2216       C  0.81359417  0.17122075  0.04506994     0.20200
H2217       H  0.79972792  0.19004792  0.91535369     0.09900
C2218       C  0.82331384  0.17939878  0.05959221    -0.16000
C2219       C  0.82656508  0.18026960  0.10406769     0.02900
C2220       C  0.81997503  0.17276306  0.13552697    -0.11400
C2221       C  0.81034377  0.16441058  0.12043219    -0.01400
C2222       C  0.80718094  0.16357416  0.07582289    -0.06600
H2223       H  0.82834407  0.18526789  0.03602532     0.05900
H2224       H  0.80509582  0.15856531  0.14346926     0.09300
Br2225     Br  0.79819529  0.19541595  0.00888396    -0.06300
Br2226     Br  0.81877175  0.14570423  0.89652988    -0.03200
Br2227     Br  0.83970913  0.19240309  0.11837617    -0.00400
Br2228     Br  0.79369675  0.15223839  0.05853612    -0.04700
C2229       C  0.85442557  0.15607732  0.28378179    -0.12100
C2230       C  0.86487822  0.15899992  0.31164071     0.03300
C2231       C  0.87454663  0.15000078  0.31863383    -0.12700
C2232       C  0.87411042  0.13806016  0.29820638     0.18200
C2233       C  0.86382624  0.13521774  0.27001553    -0.09700
C2234       C  0.85412310  0.14411668  0.26322243    -0.02700
H2235       H  0.88233412  0.15223548  0.34080213     0.04700
C2236       C  0.88397033  0.12833867  0.30841781     0.20200
H2237       H  0.84631682  0.14167175  0.24139675     0.09900
C2238       C  0.88071158  0.11793185  0.33502173    -0.16000
C2239       C  0.88939003  0.10814350  0.34368499     0.02900
C2240       C  0.90162388  0.10838553  0.32426991    -0.11400
C2241       C  0.90503388  0.11915039  0.29910537    -0.01400
C2242       C  0.89638571  0.12909744  0.29148292    -0.06600
H2243       H  0.87131269  0.11745454  0.34934810     0.05900
H2244       H  0.91441044  0.11977675  0.28471366     0.09300
Br2245     Br  0.86276463  0.11933481  0.23937212    -0.06300
Br2246     Br  0.86617831  0.17469620  0.34342965    -0.03200
Br2247     Br  0.88398577  0.09529209  0.38469671    -0.00400
Br2248     Br  0.90180915  0.14340212  0.25694740    -0.04700
C2249       C  0.93128291  0.96704318  0.89695520    -0.12100
C2250       C  0.94026080  0.97596679  0.91311897     0.03300
C2251       C  0.93982002  0.98869188  0.89910836    -0.12700
C2252       C  0.93043719  0.99284147  0.86953819     0.18200
C2253       C  0.92147327  0.98397626  0.85334827    -0.09700
C2254       C  0.92192502  0.97121462  0.86714420    -0.02700
H2255       H  0.94657720  0.99549686  0.91250415     0.04700
C2256       C  0.92965407  0.00662361  0.85874838     0.20200
H2257       H  0.91491496  0.96452439  0.85462429     0.09900
C2258       C  0.93782010  0.01197765  0.82736953    -0.16000
C2259       C  0.93796581  0.02516637  0.81930402     0.02900
C2260       C  0.92978176  0.03324084  0.84281429    -0.11400
C2261       C  0.92135791  0.02775181  0.87322185    -0.01400
C2262       C  0.92134197  0.01462672  0.88157860    -0.06600
H2263       H  0.94424493  0.00589326  0.80958907     0.05900
H2264       H  0.91516719  0.03377232  0.89221919     0.09300
Br2265     Br  0.90835944  0.98896389  0.81291685    -0.06300
Br2266     Br  0.95248953  0.97169990  0.95776549    -0.03200
Br2267     Br  0.94935622  0.03156665  0.77538153    -0.00400
Br2268     Br  0.91038606  0.00811466  0.92654275    -0.04700
C2269       C  0.01885046  0.92542762  0.12747937    -0.12100
C2270       C  0.01611590  0.92621911  0.08233308     0.03300
C2271       C  0.00418080  0.92228016  0.06655880    -0.12700
C2272       C  0.99507616  0.91690861  0.09484210     0.18200
C2273       C  0.99800271  0.91579996  0.13979559    -0.09700
C2274       C  0.00957047  0.92054065  0.15589476    -0.02700
H2275       H  0.00209562  0.92314763  0.03187465     0.04700
C2276       C  0.98268269  0.91250064  0.07656863     0.20200
H2277       H  0.01173490  0.91945430  0.19043636     0.09900
C2278       C  0.98248688  0.90395982  0.04121288    -0.16000
C2279       C  0.97120354  0.90151208  0.01774617     0.02900
C2280       C  0.95977204  0.90730986  0.03073504    -0.11400
C2281       C  0.95974407  0.91416628  0.07032997    -0.01400
C2282       C  0.97110107  0.91757677  0.09118067    -0.06600
H2283       H  0.99132406  0.89994282  0.02976994     0.05900
H2284       H  0.95109202  0.91879521  0.08078607     0.09300
Br2285     Br  0.98726518  0.90652368  0.17959095    -0.06300
Br2286     Br  0.02839165  0.93237986  0.04094715    -0.03200
Br2287     Br  0.97246521  0.89184981  0.96486447    -0.00400
Br2288     Br  0.97035100  0.93126720  0.13271467    -0.04700
C2289       C  0.97091872  0.91703527  0.86940255    -0.12100
C2290       C  0.97287959  0.90553868  0.84592329     0.03300
C2291       C  0.98478602  0.90283517  0.82788820    -0.12700
C2292       C  0.99507586  0.91134221  0.83121984     0.18200
C2293       C  0.99314884  0.92293300  0.85371397    -0.09700
C2294       C  0.98131159  0.92552070  0.87325814    -0.02700
H2295       H  0.98597605  0.89398827  0.81032206     0.04700
C2296       C  0.00704654  0.90842077  0.80658083     0.20200
H2297       H  0.98014137  0.93440994  0.89054537     0.09900
C2298       C  0.00610437  0.90563427  0.76166048    -0.16000
C2299       C  0.01696677  0.90390021  0.73599758     0.02900
C2300       C  0.02920663  0.90552345  0.75438065    -0.11400
C2301       C  0.03018494  0.90719954  0.80001166    -0.01400
C2302       C  0.01926992  0.90813918  0.82627151    -0.06600
H2303       H  0.99683072  0.90521864  0.74597286     0.05900
H2304       H  0.03949641  0.90827955  0.81506722     0.09300
Br2305     Br  0.00587301  0.93613321  0.85534710    -0.06300
Br2306     Br  0.96003853  0.89265836  0.83683321    -0.03200
Br2307     Br  0.01440709  0.90040820  0.67524884    -0.00400
Br2308     Br  0.02160038  0.90849058  0.88863517    -0.04700
C2309       C  0.92721517  0.96485252  0.40571470    -0.12100
C2310       C  0.91623412  0.97237501  0.41261207     0.03300
C2311       C  0.91637029  0.98538990  0.40193217    -0.12700
C2312       C  0.92716473  0.99127310  0.38390462     0.18200
C2313       C  0.93801745  0.98379708  0.37627813    -0.09700
C2314       C  0.93797542  0.97080329  0.38718574    -0.02700
H2315       H  0.90801294  0.99104446  0.40847121     0.04700
C2316       C  0.92708667  0.00528249  0.37525666     0.20200
H2317       H  0.94647511  0.96533026  0.38105024     0.09900
C2318       C  0.93567387  0.01319944  0.39801194    -0.16000
C2319       C  0.93592619  0.02640878  0.39090404     0.02900
C2320       C  0.92733134  0.03203653  0.36090033    -0.11400
C2321       C  0.91847918  0.02416533  0.33911953    -0.01400
C2322       C  0.91835324  0.01092954  0.34578346    -0.06600
H2323       H  0.94222071  0.00906593  0.42159364     0.05900
H2324       H  0.91189109  0.02827631  0.31562854     0.09300
Br2325     Br  0.95307112  0.99078360  0.34995509    -0.06300
Br2326     Br  0.90079712  0.96593714  0.43813110    -0.03200
Br2327     Br  0.94779252  0.03632471  0.42476349    -0.00400
Br2328     Br  0.90653892  0.00095039  0.31191313    -0.04700
C2329       C  0.91839442  0.93058122  0.56462021    -0.12100
C2330       C  0.92379822  0.93933157  0.59467561     0.03300
C2331       C  0.92317422  0.93690038  0.63984344    -0.12700
C2332       C  0.91719762  0.92588173  0.65610489     0.18200
C2333       C  0.91118793  0.91752701  0.62649194    -0.09700
C2334       C  0.91183622  0.91988359  0.58131597    -0.02700
H2335       H  0.92749574  0.94359480  0.66246409     0.04700
C2336       C  0.91709587  0.92348994  0.70411605     0.20200
H2337       H  0.90755465  0.91304520  0.55912568     0.09900
C2338       C  0.90905608  0.93069873  0.73047850    -0.16000
C2339       C  0.90913348  0.92925291  0.77611997     0.02900
C2340       C  0.91759961  0.92053332  0.79652406    -0.11400
C2341       C  0.92534461  0.91303353  0.76977744    -0.01400
C2342       C  0.92514665  0.91444630  0.72412443    -0.06600
H2343       H  0.90269830  0.93754925  0.71539415     0.05900
H2344       H  0.93196683  0.90636554  0.78445334     0.09300
Br2345     Br  0.90199402  0.90278655  0.64643381    -0.06300
Br2346     Br  0.93180115  0.95496523  0.57651286    -0.03200
Br2347     Br  0.89714305  0.93932654  0.80792248    -0.00400
Br2348     Br  0.93648251  0.90416447  0.69090811    -0.04700
C2349       C  0.91605845  0.92114458  0.29201250    -0.12100
C2350       C  0.90875045  0.93136136  0.27464637     0.03300
C2351       C  0.90914084  0.93423068  0.22978628    -0.12700
C2352       C  0.91642363  0.92698548  0.20109436     0.18200
C2353       C  0.92299357  0.91632027  0.21747862    -0.09700
C2354       C  0.92284326  0.91351787  0.26247671    -0.02700
H2355       H  0.90377656  0.94224942  0.21717614     0.04700
C2356       C  0.91716082  0.93074649  0.15423311     0.20200
H2357       H  0.92840366  0.90556304  0.27446569     0.09900
C2358       C  0.92747615  0.93812763  0.13966037    -0.16000
C2359       C  0.92890216  0.94120475  0.09513789     0.02900
C2360       C  0.91994256  0.93661355  0.06383585    -0.11400
C2361       C  0.90924459  0.92980898  0.07936905    -0.01400
C2362       C  0.90780365  0.92693027  0.12389828    -0.06600
H2363       H  0.93457744  0.94135946  0.16306635     0.05900
H2364       H  0.90213308  0.92623019  0.05663020     0.09300
Br2365     Br  0.93235127  0.90541172  0.17932046    -0.06300
Br2366     Br  0.89777754  0.94178393  0.30936435    -0.03200
Br2367     Br  0.94339414  0.95157476  0.08034430    -0.00400
Br2368     Br  0.89318366  0.91723958  0.14171390    -0.04700
C2369       C  0.96324294  0.90463049  0.50651344    -0.12100
C2370       C  0.96555455  0.90829386  0.55024800     0.03300
C2371       C  0.97802862  0.91042830  0.56507152    -0.12700
C2372       C  0.98841222  0.90907186  0.53681771     0.18200
C2373       C  0.98615242  0.90402044  0.49462378    -0.09700
C2374       C  0.97368284  0.90177634  0.48006941    -0.02700
H2375       H  0.97959728  0.91358598  0.59839584     0.04700
C2376       C  0.00143111  0.91262033  0.55252929     0.20200
H2377       H  0.97216065  0.89899493  0.44641724     0.09900
C2378       C  0.01098625  0.90342391  0.55216893    -0.16000
C2379       C  0.02313281  0.90595019  0.56896332     0.02900
C2380       C  0.02582416  0.91782888  0.58941567    -0.11400
C2381       C  0.01634988  0.92721059  0.58853485    -0.01400
C2382       C  0.00434376  0.92478734  0.56972690    -0.06600
H2383       H  0.00887638  0.89399268  0.53978182     0.05900
H2384       H  0.01819222  0.93640133  0.60328610     0.09300
Br2385     Br  0.99947114  0.90106659  0.45354595    -0.06300
Br2386     Br  0.95190979  0.91123221  0.59011785    -0.03200
Br2387     Br  0.03482789  0.89196256  0.56577245    -0.00400
Br2388     Br  0.99237743  0.93851303  0.56798979    -0.04700
C2389       C  0.03070768  0.90819603  0.27402163    -0.12100
C2390       C  0.01982509  0.90164947  0.25852549     0.03300
C2391       C  0.00829910  0.90295383  0.28064913    -0.12700
C2392       C  0.00752941  0.91016575  0.31925304     0.18200
C2393       C  0.01896380  0.91437498  0.33913193    -0.09700
C2394       C  0.03037685  0.91345320  0.31628876    -0.02700
H2395       H  0.99977826  0.89879870  0.26642245     0.04700
C2396       C  0.99473096  0.91313369  0.33707566     0.20200
H2397       H  0.03884219  0.91784981  0.33018715     0.09900
C2398       C  0.98590617  0.90317464  0.34166003    -0.16000
C2399       C  0.97339554  0.90545933  0.35425531     0.02900
C2400       C  0.96955223  0.91794986  0.36521447    -0.11400
C2401       C  0.97835185  0.92795954  0.36074080    -0.01400
C2402       C  0.99065770  0.92573836  0.34500338    -0.06600
H2403       H  0.98873290  0.89348921  0.33476465     0.05900
H2404       H  0.97548903  0.93760934  0.36800834     0.09300
Br2405     Br  0.01977423  0.92173772  0.39648919    -0.06300
Br2406     Br  0.01978276  0.89146358  0.20644385    -0.03200
Br2407     Br  0.96242602  0.89077422  0.35683092    -0.00400
Br2408     Br  0.00080619  0.94038791  0.33016958    -0.04700
C2409       C  0.84993256  0.84737260  0.98927563    -0.12100
C2410       C  0.85021626  0.85929027  0.01122956     0.03300
C2411       C  0.86022976  0.86801094  0.00415740    -0.12700
C2412       C  0.87007472  0.86540025  0.97489203     0.18200
C2413       C  0.86977302  0.85368759  0.95245609    -0.09700
C2414       C  0.85991382  0.84477494  0.96008845    -0.02700
H2415       H  0.86027895  0.87699212  0.02145866     0.04700
C2416       C  0.88033855  0.87516859  0.96752028     0.20200
H2417       H  0.85994423  0.83585680  0.94244114     0.09900
C2418       C  0.89070076  0.87613812  0.99683728    -0.16000
C2419       C  0.90037135  0.88537136  0.99085681     0.02900
C2420       C  0.89982914  0.89390467  0.95490431    -0.11400
C2421       C  0.88926854  0.89309234  0.92637149    -0.01400
C2422       C  0.87964900  0.88388979  0.93236969    -0.06600
H2423       H  0.89122218  0.86973828  0.02470790     0.05900
H2424       H  0.88855153  0.89957933  0.89877135     0.09300
Br2425     Br  0.88259369  0.84959031  0.91058307    -0.06300
Br2426     Br  0.83754079  0.86436256  0.05258048    -0.03200
Br2427     Br  0.91356520  0.88653855  0.03447974    -0.00400
Br2428     Br  0.86558794  0.88368726  0.89199501    -0.04700
C2429       C  0.82567586  0.82618222  0.64444367    -0.12100
C2430       C  0.83298473  0.82084737  0.67916502     0.03300
C2431       C  0.82974015  0.82332374  0.72276243    -0.12700
C2432       C  0.81938774  0.83108822  0.73294276     0.18200
C2433       C  0.81266089  0.83709107  0.69878374    -0.09700
C2434       C  0.81577088  0.83458877  0.65516650    -0.02700
H2435       H  0.83504869  0.81876981  0.74899331     0.04700
C2436       C  0.81520222  0.83194005  0.77913535     0.20200
H2437       H  0.81018055  0.83906320  0.62950237     0.09900
C2438       C  0.82207096  0.83947705  0.80878620    -0.16000
C2439       C  0.81919857  0.83936671  0.85359502     0.02900
C2440       C  0.80919525  0.83148471  0.86972195    -0.11400
C2441       C  0.80200225  0.82438947  0.83919042    -0.01400
C2442       C  0.80497942  0.82449777  0.79452649    -0.06600
H2443       H  0.82999051  0.84518876  0.79715068     0.05900
H2444       H  0.79437129  0.81821247  0.85029563     0.09300
Br2445     Br  0.79897655  0.84856165  0.71033787    -0.06300
Br2446     Br  0.84701376  0.80950171  0.67057888    -0.03200
Br2447     Br  0.83013138  0.84954892  0.89020031    -0.00400
Br2448     Br  0.79548732  0.81352572  0.75604006    -0.04700
C2449       C  0.81664513  0.82053464  0.37231825    -0.12100
C2450       C  0.81509663  0.83277664  0.35375985     0.03300
C2451       C  0.81608598  0.83448229  0.30826586    -0.12700
C2452       C  0.81870444  0.82416481  0.28078902     0.18200
C2453       C  0.82043783  0.81200532  0.29935384    -0.09700
C2454       C  0.81927674  0.81025782  0.34456840    -0.02700
H2455       H  0.81464262  0.84385966  0.29418450     0.04700
C2456       C  0.81908519  0.82606302  0.23269912     0.20200
H2457       H  0.82073262  0.80082960  0.35823867     0.09900
C2458       C  0.83019451  0.83075937  0.21292806    -0.16000
C2459       C  0.83102525  0.83183166  0.16719605     0.02900
C2460       C  0.82050265  0.82840806  0.14061791    -0.11400
C2461       C  0.80929514  0.82406149  0.16068757    -0.01400
C2462       C  0.80857459  0.82275227  0.20619456    -0.06600
H2463       H  0.83832306  0.83334654  0.23309085     0.05900
H2464       H  0.80120916  0.82117556  0.14076334     0.09300
Br2465     Br  0.82464826  0.79755241  0.26422302    -0.06300
Br2466     Br  0.81090539  0.84730688  0.38849398    -0.03200
Br2467     Br  0.84660928  0.83825331  0.14289768    -0.00400
Br2468     Br  0.79317754  0.81599574  0.23073569    -0.04700
C2469       C  0.85775312  0.83851471  0.49504932    -0.12100
C2470       C  0.86524309  0.83809966  0.45704754     0.03300
C2471       C  0.87450487  0.84754131  0.44972891    -0.12700
C2472       C  0.87650941  0.85736098  0.48014236     0.18200
C2473       C  0.86922681  0.85753998  0.51865510    -0.09700
C2474       C  0.85986375  0.84823952  0.52561536    -0.02700
H2475       H  0.87994483  0.84741039  0.41974722     0.04700
C2476       C  0.88544968  0.86790490  0.46967095     0.20200
H2477       H  0.85423611  0.84855715  0.55517082     0.09900
C2478       C  0.88046666  0.87979302  0.45817557    -0.16000
C2479       C  0.88842221  0.89008814  0.44768203     0.02900
C2480       C  0.90186394  0.88862629  0.44874972    -0.11400
C2481       C  0.90678185  0.87659216  0.46044854    -0.01400
C2482       C  0.89871820  0.86631129  0.47067918    -0.06600
H2483       H  0.87023629  0.88104701  0.45715344     0.05900
H2484       H  0.91697009  0.87511099  0.46164190     0.09300
Br2485     Br  0.87188567  0.87019123  0.56295331    -0.06300
Br2486     Br  0.86246493  0.82543118  0.41286531    -0.03200
Br2487     Br  0.87987999  0.90560799  0.43192604    -0.00400
Br2488     Br  0.90618956  0.85033098  0.48685458    -0.04700
C2489       C  0.47072970  0.08866745  0.83015223    -0.12100
C2490       C  0.47403217  0.10090320  0.81376910     0.03300
C2491       C  0.48621161  0.10322118  0.79756800    -0.12700
C2492       C  0.49524752  0.09353679  0.79584526     0.18200
C2493       C  0.49206611  0.08133103  0.81211805    -0.09700
C2494       C  0.47995746  0.07904766  0.82976845    -0.02700
H2495       H  0.48860670  0.11264579  0.78541645     0.04700
C2496       C  0.50756819  0.09621298  0.77424315     0.20200
H2497       H  0.47765826  0.06965900  0.84241259     0.09900
C2498       C  0.51903599  0.09532208  0.79805483    -0.16000
C2499       C  0.53077933  0.09618586  0.77665055     0.02900
C2500       C  0.53109218  0.09818308  0.73100242    -0.11400
C2501       C  0.51967328  0.10059551  0.70850048    -0.01400
C2502       C  0.50798148  0.09935896  0.72936070    -0.06600
H2503       H  0.51883632  0.09335699  0.83289900     0.05900
H2504       H  0.51970178  0.10192128  0.67335234     0.09300
Br2505     Br  0.50364797  0.06732509  0.80860678    -0.06300
Br2506     Br  0.46277671  0.11523934  0.81381038    -0.03200
Br2507     Br  0.54611218  0.09404287  0.81034123    -0.00400
Br2508     Br  0.49295291  0.10025502  0.69329095    -0.04700
C2509       C  0.45693939  0.08720697  0.48796001    -0.12100
C2510       C  0.46821420  0.09227119  0.46955020     0.03300
C2511       C  0.47954428  0.09219396  0.49394215    -0.12700
C2512       C  0.47990540  0.08749864  0.53704655     0.18200
C2513       C  0.46835417  0.08413655  0.55738334    -0.09700
C2514       C  0.45707049  0.08375879  0.53261457    -0.02700
H2515       H  0.48828123  0.09527794  0.47837537     0.04700
C2516       C  0.49252115  0.08587532  0.55882602     0.20200
H2517       H  0.44845843  0.08021153  0.54785930     0.09900
C2518       C  0.50068250  0.09644207  0.56211317    -0.16000
C2519       C  0.51321732  0.09515493  0.57715357     0.02900
C2520       C  0.51782385  0.08306687  0.59025965    -0.11400
C2521       C  0.50956322  0.07253880  0.58814621    -0.01400
C2522       C  0.49713855  0.07377712  0.57155627    -0.06600
H2523       H  0.49733618  0.10575297  0.55204955     0.05900
H2524       H  0.51295836  0.06320854  0.59777944     0.09300
Br2525     Br  0.46747647  0.08001088  0.61861685    -0.06300
Br2526     Br  0.46929449  0.09834130  0.41025072    -0.03200
Br2527     Br  0.52329710  0.11046425  0.57994792    -0.00400
Br2528     Br  0.48743813  0.05843194  0.56288371    -0.04700
C2529       C  0.56843435  0.07317029  0.99333313    -0.12100
C2530       C  0.56006858  0.06713258  0.96297661     0.03300
C2531       C  0.56371330  0.06571527  0.91956637    -0.12700
C2532       C  0.57576797  0.06952514  0.90521498     0.18200
C2533       C  0.58426930  0.07522455  0.93523332    -0.09700
C2534       C  0.58053944  0.07708007  0.97870965    -0.02700
H2535       H  0.55699945  0.06155645  0.89653388     0.04700
C2536       C  0.57855095  0.06826572  0.85793836     0.20200
H2537       H  0.58722565  0.08148499  0.00120721     0.09900
C2538       C  0.58068670  0.07933491  0.83311156    -0.16000
C2539       C  0.57995060  0.07907476  0.78741380     0.02900
C2540       C  0.57670461  0.06763506  0.76591975    -0.11400
C2541       C  0.57551631  0.05639063  0.79047381    -0.01400
C2542       C  0.57664232  0.05658369  0.83609067    -0.06600
H2543       H  0.58197424  0.08840553  0.84935910     0.05900
H2544       H  0.57312288  0.04752735  0.77424826     0.09300
Br2545     Br  0.60118199  0.08021056  0.91893231    -0.06300
Br2546     Br  0.54358503  0.06009867  0.97669336    -0.03200
Br2547     Br  0.58166382  0.09498425  0.75684829    -0.00400
Br2548     Br  0.57481279  0.04075046  0.86722608    -0.04700
C2549       C  0.56953836  0.08247706  0.49787845    -0.12100
C2550       C  0.57946079  0.07617586  0.47590586     0.03300
C2551       C  0.58015780  0.07678473  0.43010374    -0.12700
C2552       C  0.57115370  0.08362829  0.40558745     0.18200
C2553       C  0.56124544  0.08986831  0.42734393    -0.09700
C2554       C  0.56054924  0.08932089  0.47299561    -0.02700
H2555       H  0.58781024  0.07196752  0.41350559     0.04700
C2556       C  0.57193763  0.08383310  0.35725525     0.20200
H2557       H  0.55279410  0.09412425  0.48908224     0.09900
C2558       C  0.56729444  0.07335593  0.33362582    -0.16000
C2559       C  0.56675490  0.07364994  0.28781069     0.02900
C2560       C  0.57107476  0.08451947  0.26491306    -0.11400
C2561       C  0.57598915  0.09489872  0.28862297    -0.01400
C2562       C  0.57652026  0.09459112  0.33445101    -0.06600
H2563       H  0.56358255  0.06512225  0.35099862     0.05900
H2564       H  0.57915281  0.10338883  0.27143425     0.09300
Br2565     Br  0.54822776  0.09893621  0.39594958    -0.06300
Br2566     Br  0.59275581  0.06724598  0.50629212    -0.03200
Br2567     Br  0.55861462  0.05963499  0.25846407    -0.00400
Br2568     Br  0.58324288  0.10916226  0.36466720    -0.04700
C2569       C  0.46326319  0.06769761  0.33289011    -0.12100
C2570       C  0.46326327  0.06800475  0.28671257     0.03300
C2571       C  0.47474969  0.06939126  0.26438782    -0.12700
C2572       C  0.48630475  0.07041869  0.28739962     0.18200
C2573       C  0.48636420  0.06959636  0.33338546    -0.09700
C2574       C  0.47489466  0.06812353  0.35575649    -0.02700
H2575       H  0.47466358  0.06987609  0.22892807     0.04700
C2576       C  0.49813108  0.07275208  0.26286019     0.20200
H2577       H  0.47502623  0.06795930  0.39125054     0.09900
C2578       C  0.50393957  0.08478240  0.26496073    -0.16000
C2579       C  0.51480139  0.08757374  0.24043380     0.02900
C2580       C  0.52010973  0.07809654  0.21338409    -0.11400
C2581       C  0.51427220  0.06601513  0.21183447    -0.01400
C2582       C  0.50335433  0.06332958  0.23606594    -0.06600
H2583       H  0.49979149  0.09213961  0.28499445     0.05900
H2584       H  0.51813130  0.05862955  0.19124279     0.09300
Br2585     Br  0.50184632  0.07067371  0.36690504    -0.06300
Br2586     Br  0.44792080  0.06628919  0.25257900    -0.03200
Br2587     Br  0.52106173  0.10480128  0.24294462    -0.00400
Br2588     Br  0.49587449  0.04666970  0.23156879    -0.04700
C2589       C  0.52168858  0.10400285  0.06140767    -0.12100
C2590       C  0.51806497  0.10088449  0.01813209     0.03300
C2591       C  0.50604823  0.10431295  0.00215365    -0.12700
C2592       C  0.49751310  0.11126688  0.02776618     0.18200
C2593       C  0.50155276  0.11538189  0.06954896    -0.09700
C2594       C  0.51351043  0.11172938  0.08599930    -0.02700
H2595       H  0.50316501  0.10107324  0.96992851     0.04700
C2596       C  0.48410822  0.11256581  0.01191896     0.20200
H2597       H  0.51609716  0.11437645  0.11913954     0.09900
C2598       C  0.47424704  0.10705292  0.03660955    -0.16000
C2599       C  0.46222363  0.10478124  0.01797142     0.02900
C2600       C  0.46002633  0.10759886  0.97328525    -0.11400
C2601       C  0.46932100  0.11460006  0.95045130    -0.01400
C2602       C  0.48125656  0.11712916  0.96942796    -0.06600
H2603       H  0.47613182  0.10366017  0.06956057     0.05900
H2604       H  0.46778084  0.11710466  0.91638864     0.09300
Br2605     Br  0.49103248  0.12578929  0.10570132    -0.06300
Br2606     Br  0.52903571  0.09200630  0.97887773    -0.03200
Br2607     Br  0.44936555  0.09717457  0.05433364    -0.00400
Br2608     Br  0.49362752  0.12610377  0.93489675    -0.04700
C2609       C  0.71367755  0.18450733  0.70134579    -0.12100
C2610       C  0.72074716  0.17525235  0.67839768     0.03300
C2611       C  0.73395295  0.17447621  0.68425624    -0.12700
C2612       C  0.74043181  0.18293278  0.71192575     0.18200
C2613       C  0.73354977  0.19251759  0.73326816    -0.09700
C2614       C  0.72028977  0.19324010  0.72797255    -0.02700
H2615       H  0.73922346  0.16726258  0.66694995     0.04700
C2616       C  0.75432955  0.18146466  0.71884484     0.20200
H2617       H  0.71511973  0.20053711  0.74521858     0.09900
C2618       C  0.76288291  0.18879044  0.69405020    -0.16000
C2619       C  0.77603554  0.18810992  0.70189141     0.02900
C2620       C  0.78079272  0.18013853  0.73552056    -0.11400
C2621       C  0.77224306  0.17228971  0.75852372    -0.01400
C2622       C  0.75912573  0.17288426  0.75034761    -0.06600
H2623       H  0.75930316  0.19511962  0.66876864     0.05900
H2624       H  0.77571316  0.16604256  0.78423390     0.09300
Br2625     Br  0.74192429  0.20469202  0.77034777    -0.06300
Br2626     Br  0.71320557  0.16395390  0.63603369    -0.03200
Br2627     Br  0.78710863  0.19772923  0.66434847    -0.00400
Br2628     Br  0.74803762  0.16215454  0.78409776    -0.04700
C2629       C  0.63771019  0.15750139  0.67898918    -0.12100
C2630       C  0.63493904  0.14823893  0.71123096     0.03300
C2631       C  0.62558246  0.13899017  0.70333665    -0.12700
C2632       C  0.61887803  0.13875824  0.66356254     0.18200
C2633       C  0.62145281  0.14812332  0.63157492    -0.09700
C2634       C  0.63079365  0.15745679  0.63951075    -0.02700
H2635       H  0.62348187  0.13196419  0.72840957     0.04700
C2636       C  0.60894703  0.12889688  0.65692133     0.20200
H2637       H  0.63282764  0.16453164  0.61454210     0.09900
C2638       C  0.59675716  0.13093397  0.67349259    -0.16000
C2639       C  0.58714269  0.12171845  0.66914428     0.02900
C2640       C  0.58966248  0.11009554  0.64740517    -0.11400
C2641       C  0.60204450  0.10807941  0.63143171    -0.01400
C2642       C  0.61162435  0.11731935  0.63617820    -0.06600
H2643       H  0.59474113  0.13975460  0.69027403     0.05900
H2644       H  0.60432614  0.09929345  0.61491416     0.09300
Br2645     Br  0.61242736  0.14845832  0.57680497    -0.06300
Br2646     Br  0.64315422  0.14819908  0.76757635    -0.03200
Br2647     Br  0.57109266  0.12572261  0.69538351    -0.00400
Br2648     Br  0.62829393  0.11370384  0.61444020    -0.04700
C2649       C  0.77759668  0.18048155  0.25914995    -0.12100
C2650       C  0.76966933  0.16995135  0.26974585     0.03300
C2651       C  0.75656325  0.17040970  0.26059801    -0.12700
C2652       C  0.75107205  0.18113258  0.24062678     0.18200
C2653       C  0.75896890  0.19147174  0.22904039    -0.09700
C2654       C  0.77202739  0.19111725  0.23850128    -0.02700
H2655       H  0.75056029  0.16241704  0.26980434     0.04700
C2656       C  0.73706424  0.18157663  0.23338800     0.20200
H2657       H  0.77787313  0.19923987  0.22945292     0.09900
C2658       C  0.72977816  0.19031820  0.25697919    -0.16000
C2659       C  0.71661207  0.19134441  0.25005909     0.02900
C2660       C  0.71041738  0.18335921  0.21932498    -0.11400
C2661       C  0.71771115  0.17438318  0.19661436    -0.01400
C2662       C  0.73089521  0.17352142  0.20311493    -0.06600
H2663       H  0.73440450  0.19646433  0.28074183     0.05900
H2664       H  0.71320879  0.16827140  0.17248234     0.09300
Br2665     Br  0.75238489  0.20615073  0.19904612    -0.06300
Br2666     Br  0.77580290  0.15493666  0.29899802    -0.03200
Br2667     Br  0.70766061  0.20356044  0.28464079    -0.00400
Br2668     Br  0.74017936  0.16176587  0.16784790    -0.04700
C2669       C  0.67933542  0.17776024  0.05934603    -0.12100
C2670       C  0.67801450  0.16566831  0.03952316     0.03300
C2671       C  0.67696819  0.16475875  0.99393367    -0.12700
C2672       C  0.67731114  0.17568928  0.96753603     0.18200
C2673       C  0.67919583  0.18766505  0.98689025    -0.09700
C2674       C  0.68021578  0.18863423  0.03239302    -0.02700
H2675       H  0.67566635  0.15549862  0.97900292     0.04700
C2676       C  0.67491669  0.17453749  0.92011109     0.20200
H2677       H  0.68116915  0.19800722  0.04676648     0.09900
C2678       C  0.66242830  0.17563171  0.90444539    -0.16000
C2679       C  0.65974021  0.17534634  0.85954039     0.02900
C2680       C  0.66975573  0.17363412  0.82920471    -0.11400
C2681       C  0.68225363  0.17221965  0.84556738    -0.01400
C2682       C  0.68488030  0.17282288  0.89045666    -0.06600
H2683       H  0.65474776  0.17703852  0.92737426     0.05900
H2684       H  0.69015403  0.17116926  0.82331999     0.09300
Br2685     Br  0.68001905  0.20294598  0.95231451    -0.06300
Br2686     Br  0.67780179  0.15002074  0.07236017    -0.03200
Br2687     Br  0.64220198  0.17772993  0.84322920    -0.00400
Br2688     Br  0.70226273  0.17199577  0.90980397    -0.04700
C2689       C  0.66607370  0.17148933  0.32737060    -0.12100
C2690       C  0.65674449  0.17425088  0.35917043     0.03300
C2691       C  0.66003278  0.17421814  0.40375938    -0.12700
C2692       C  0.67243495  0.17138981  0.41775114     0.18200
C2693       C  0.68155956  0.16800381  0.38665008    -0.09700
C2694       C  0.67836882  0.16808267  0.34211253    -0.02700
H2695       H  0.65290063  0.17661533  0.42774964     0.04700
C2696       C  0.67562596  0.17224057  0.46493439     0.20200
H2697       H  0.68575256  0.16584440  0.31888513     0.09900
C2698       C  0.67182748  0.16242388  0.49322461    -0.16000
C2699       C  0.67355099  0.16343661  0.53864016     0.02900
C2700       C  0.67908257  0.17463027  0.55668223    -0.11400
C2701       C  0.68339329  0.18418553  0.52762533    -0.01400
C2702       C  0.68169724  0.18307493  0.48233170    -0.06600
H2703       H  0.66725678  0.15400144  0.47987036     0.05900
H2704       H  0.68768998  0.19285081  0.54010274     0.09300
Br2705     Br  0.69855369  0.16340537  0.40350046    -0.06300
Br2706     Br  0.63934681  0.17805939  0.34497475    -0.03200
Br2707     Br  0.66784351  0.14916527  0.57308050    -0.00400
Br2708     Br  0.68719544  0.19692461  0.44565442    -0.04700
C2709       C  0.63426449  0.16047845  0.16268144    -0.12100
C2710       C  0.62630961  0.16380987  0.12692963     0.03300
C2711       C  0.61583431  0.15606326  0.11590870    -0.12700
C2712       C  0.61300231  0.14510879  0.14052187     0.18200
C2713       C  0.62085906  0.14186992  0.17639333    -0.09700
C2714       C  0.63146127  0.14942784  0.18685011    -0.02700
H2715       H  0.60990010  0.15857042  0.08806194     0.04700
C2716       C  0.60213703  0.13677884  0.12807682     0.20200
H2717       H  0.63732247  0.14686742  0.21484277     0.09900
C2718       C  0.60457810  0.12559998  0.10490856    -0.16000
C2719       C  0.59516406  0.11623019  0.09984595     0.02900
C2720       C  0.58300595  0.11792316  0.11848705    -0.11400
C2721       C  0.58025837  0.12963332  0.13831901    -0.01400
C2722       C  0.58973640  0.13901680  0.14329182    -0.06600
H2723       H  0.61403989  0.12390304  0.09242502     0.05900
H2724       H  0.57100503  0.13114853  0.15273471     0.09300
Br2725     Br  0.61714972  0.12741583  0.21295992    -0.06300
Br2726     Br  0.62964032  0.17850484  0.09099090    -0.03200
Br2727     Br  0.59963546  0.10123484  0.06782481    -0.00400
Br2728     Br  0.58568705  0.15427951  0.17424589    -0.04700
C2729       C  0.55866610  0.96715442  0.60641378    -0.12100
C2730       C  0.56780767  0.97358908  0.63241595     0.03300
C2731       C  0.56738655  0.98689844  0.63632945    -0.12700
C2732       C  0.55796503  0.99401930  0.61467782     0.18200
C2733       C  0.54877900  0.98759843  0.58906236    -0.09700
C2734       C  0.54910562  0.97430106  0.58548380    -0.02700
H2735       H  0.57445409  0.99172922  0.65635478     0.04700
C2736       C  0.55805506  0.00813907  0.61822922     0.20200
H2737       H  0.54210164  0.96956097  0.56494124     0.09900
C2738       C  0.56710167  0.01525329  0.59482511    -0.16000
C2739       C  0.56744811  0.02859977  0.59711433     0.02900
C2740       C  0.55859643  0.03512860  0.62327542    -0.11400
C2741       C  0.54947156  0.02793761  0.64640805    -0.01400
C2742       C  0.54921912  0.01459332  0.64434811    -0.06600
H2743       H  0.57388664  0.01038459  0.57438460     0.05900
H2744       H  0.54272502  0.03269201  0.66730400     0.09300
Br2745     Br  0.53601408  0.99667653  0.55656113    -0.06300
Br2746     Br  0.58071010  0.96466662  0.66482102    -0.03200
Br2747     Br  0.57983759  0.03733491  0.56207904    -0.00400
Br2748     Br  0.53698707  0.00551625  0.67912399    -0.04700
C2749       C  0.52930124  0.90078508  0.51337894    -0.12100
C2750       C  0.52645751  0.90358008  0.46904785     0.03300
C2751       C  0.51419107  0.90127197  0.45250439    -0.12700
C2752       C  0.50460803  0.89631260  0.47953740     0.18200
C2753       C  0.50774884  0.89241381  0.52240571    -0.09700
C2754       C  0.52005055  0.89451691  0.53879117    -0.02700
H2755       H  0.51190065  0.90413294  0.41923563     0.04700
C2756       C  0.49121503  0.89688464  0.46421449     0.20200
H2757       H  0.52197702  0.89233554  0.57289823     0.09900
C2758       C  0.48692982  0.88883680  0.43063645    -0.16000
C2759       C  0.47483576  0.89040681  0.41149262     0.02900
C2760       C  0.46677837  0.90029688  0.42601282    -0.11400
C2761       C  0.47089411  0.90769698  0.46191566    -0.01400
C2762       C  0.48301321  0.90628448  0.48017063    -0.06600
H2763       H  0.49321756  0.88159046  0.41817770     0.05900
H2764       H  0.46506830  0.91537404  0.47395664     0.09300
Br2765     Br  0.49523455  0.88528890  0.56102317    -0.06300
Br2766     Br  0.53868822  0.91121524  0.43030225    -0.03200
Br2767     Br  0.47045040  0.87910079  0.36443653    -0.00400
Br2768     Br  0.48843560  0.91852326  0.52317050    -0.04700
C2769       C  0.52215382  0.91812914  0.66291785    -0.12100
C2770       C  0.51504381  0.92820081  0.68009012     0.03300
C2771       C  0.50357884  0.92559576  0.70171112    -0.12700
C2772       C  0.49905242  0.91302596  0.70622481     0.18200
C2773       C  0.50622533  0.90296426  0.68927729    -0.09700
C2774       C  0.51774106  0.90555539  0.66823968    -0.02700
H2775       H  0.49811913  0.93340159  0.71481852     0.04700
C2776       C  0.48654918  0.91075175  0.72693722     0.20200
H2777       H  0.52313106  0.89772745  0.65493408     0.09900
C2778       C  0.47547676  0.91289504  0.70222973    -0.16000
C2779       C  0.46352303  0.91282150  0.72209593     0.02900
C2780       C  0.46252486  0.91068456  0.76761840    -0.11400
C2781       C  0.47352129  0.90734540  0.79148184    -0.01400
C2782       C  0.48549748  0.90742794  0.77149978    -0.06600
H2783       H  0.47619132  0.91516111  0.66768203     0.05900
H2784       H  0.47298306  0.90579487  0.82651471     0.09300
Br2785     Br  0.50040178  0.88564357  0.69272659    -0.06300
Br2786     Br  0.52092579  0.94549088  0.67621477    -0.03200
Br2787     Br  0.44890513  0.91628242  0.68594781    -0.00400
Br2788     Br  0.50025038  0.90409945  0.80704180    -0.04700
C2789       C  0.57096702  0.97276166  0.08419496    -0.12100
C2790       C  0.57938297  0.97972961  0.11144111     0.03300
C2791       C  0.57792962  0.99294088  0.11588987    -0.12700
C2792       C  0.56827009  0.99949931  0.09331506     0.18200
C2793       C  0.56066441  0.99273902  0.06297211    -0.09700
C2794       C  0.56188763  0.97949209  0.05929080    -0.02700
H2795       H  0.58406705  0.99805948  0.13850657     0.04700
C2796       C  0.56627004  0.01329046  0.10249262     0.20200
H2797       H  0.55545980  0.97435861  0.03768752     0.09900
C2798       C  0.57604738  0.02200019  0.09338393    -0.16000
C2799       C  0.57473378  0.03501887  0.10215089     0.02900
C2800       C  0.56327013  0.03971856  0.12051618    -0.11400
C2801       C  0.55358535  0.03086403  0.13044594    -0.01400
C2802       C  0.55506701  0.01779864  0.12222471    -0.06600
H2803       H  0.58478279  0.01863468  0.07891874     0.05900
H2804       H  0.54479297  0.03409531  0.14484526     0.09300
Br2805     Br  0.54857633  0.00116348  0.02555571    -0.06300
Br2806     Br  0.59218971  0.97167232  0.14688384    -0.03200
Br2807     Br  0.58903039  0.04555992  0.08614576    -0.00400
Br2808     Br  0.54177032  0.00641039  0.14066896    -0.04700
C2809       C  0.57696169  0.92264313  0.72381706    -0.12100
C2810       C  0.58156159  0.91213693  0.74808857     0.03300
C2811       C  0.58326499  0.91319231  0.79339370    -0.12700
C2812       C  0.58043423  0.92456967  0.81498487     0.18200
C2813       C  0.57656611  0.93524819  0.79050025    -0.09700
C2814       C  0.57493998  0.93424885  0.74523949    -0.02700
H2815       H  0.58628844  0.90495109  0.81215600     0.04700
C2816       C  0.57966818  0.92455825  0.86313481     0.20200
H2817       H  0.57138784  0.94239145  0.72711418     0.09900
C2818       C  0.58927410  0.93026964  0.88861689    -0.16000
C2819       C  0.58832384  0.93063072  0.93444202     0.02900
C2820       C  0.57757374  0.92520473  0.95514317    -0.11400
C2821       C  0.56813265  0.91934444  0.92911143    -0.01400
C2822       C  0.56905692  0.91906637  0.88371671    -0.06600
H2823       H  0.59750896  0.93444458  0.87279465     0.05900
H2824       H  0.55977853  0.91512704  0.94405049     0.09300
Br2825     Br  0.57230414  0.95102637  0.81796676    -0.06300
Br2826     Br  0.58570636  0.89617467  0.72145369    -0.03200
Br2827     Br  0.60225229  0.93800908  0.96661581    -0.00400
Br2828     Br  0.55529952  0.91148280  0.85100833    -0.04700
C2829       C  0.58097596  0.93863648  0.22587388    -0.12100
C2830       C  0.58229543  0.92732688  0.25048627     0.03300
C2831       C  0.58174432  0.92779617  0.29623369    -0.12700
C2832       C  0.57992698  0.93940543  0.31781222     0.18200
C2833       C  0.57977948  0.95079437  0.29337721    -0.09700
C2834       C  0.58016638  0.95032448  0.24773798    -0.02700
H2835       H  0.58197725  0.91899698  0.31490032     0.04700
C2836       C  0.57724135  0.93927229  0.36522818     0.20200
H2837       H  0.57912266  0.95907414  0.22915128     0.09900
C2838       C  0.58691721  0.93599731  0.39480730    -0.16000
C2839       C  0.58451740  0.93493834  0.43972001     0.02900
C2840       C  0.57206770  0.93708595  0.45581047    -0.11400
C2841       C  0.56247036  0.94060075  0.42576107    -0.01400
C2842       C  0.56492951  0.94162872  0.38099650    -0.06600
H2843       H  0.59639838  0.93415011  0.38275233     0.05900
H2844       H  0.55284856  0.94221885  0.43681472     0.09300
Br2845     Br  0.57843810  0.96712799  0.32075593    -0.06300
Br2846     Br  0.58306249  0.91088843  0.22339277    -0.03200
Br2847     Br  0.59885299  0.93054293  0.47609337    -0.00400
Br2848     Br  0.55093327  0.94556571  0.34256484    -0.04700
C2849       C  0.52566617  0.93522248  0.03097069    -0.12100
C2850       C  0.52424415  0.93592375  0.98513448     0.03300
C2851       C  0.51205549  0.93668675  0.96670211    -0.12700
C2852       C  0.50121425  0.93696486  0.99329696     0.18200
C2853       C  0.50268618  0.93688511  0.03911572    -0.09700
C2854       C  0.51483266  0.93602244  0.05751210    -0.02700
H2855       H  0.51100500  0.93677097  0.93136414     0.04700
C2856       C  0.48852142  0.93604709  0.97251273     0.20200
H2857       H  0.51576373  0.93555588  0.09286487     0.09900
C2858       C  0.48112716  0.92511422  0.98014703    -0.16000
C2859       C  0.46976277  0.92300380  0.95724242     0.02900
C2860       C  0.46572774  0.93191685  0.92520300    -0.11400
C2861       C  0.47292156  0.94312863  0.91906510    -0.01400
C2862       C  0.48419630  0.94525503  0.94243599    -0.06600
H2863       H  0.48446245  0.91793765  0.00307184     0.05900
H2864       H  0.46987370  0.95022980  0.89540772     0.09300
Br2865     Br  0.48844850  0.93784785  0.07800031    -0.06300
Br2866     Br  0.53851573  0.93633995  0.94632041    -0.03200
Br2867     Br  0.46094927  0.90731956  0.96967821    -0.00400
Br2868     Br  0.49333298  0.96085895  0.93214245    -0.04700
C2869       C  0.47352112  0.91776881  0.28042074    -0.12100
C2870       C  0.47634198  0.92293507  0.23913636     0.03300
C2871       C  0.48806097  0.92028146  0.21978122    -0.12700
C2872       C  0.49680538  0.91202106  0.24025591     0.18200
C2873       C  0.49372244  0.90653875  0.28102197    -0.09700
C2874       C  0.48226555  0.90964618  0.30107007    -0.02700
H2875       H  0.49037770  0.92470067  0.18869588     0.04700
C2876       C  0.50942803  0.91013058  0.22016197     0.20200
H2877       H  0.47995636  0.90534468  0.33230626     0.09900
C2878       C  0.52037494  0.91396369  0.24334691    -0.16000
C2879       C  0.53220251  0.91458769  0.22284140     0.02900
C2880       C  0.53309968  0.91181694  0.17784846    -0.11400
C2881       C  0.52242383  0.90667093  0.15605009    -0.01400
C2882       C  0.51065743  0.90577704  0.17686972    -0.06600
H2883       H  0.51962802  0.91705386  0.27701544     0.05900
H2884       H  0.52293869  0.90423224  0.12169095     0.09300
Br2885     Br  0.50439954  0.89414745  0.30926366    -0.06300
Br2886     Br  0.46456240  0.93374743  0.20871663    -0.03200
Br2887     Br  0.54669151  0.91951617  0.25764008    -0.00400
Br2888     Br  0.49648985  0.89901254  0.14423154    -0.04700
C2889       C  0.71622788  0.81994245  0.56381714    -0.12100
C2890       C  0.72030829  0.81297876  0.52721101     0.03300
C2891       C  0.73332118  0.81126777  0.51988572    -0.12700
C2892       C  0.74244514  0.81629762  0.54886831     0.18200
C2893       C  0.73838701  0.82360122  0.58472286    -0.09700
C2894       C  0.72534537  0.82539606  0.59192381    -0.02700
H2895       H  0.73634324  0.80589806  0.49164266     0.04700
C2896       C  0.75614166  0.81431606  0.53983706     0.20200
H2897       H  0.72231528  0.83068650  0.62032946     0.09900
C2898       C  0.76183414  0.82135621  0.50616598    -0.16000
C2899       C  0.77474490  0.81994570  0.49662397     0.02900
C2900       C  0.78231709  0.81136829  0.52125608    -0.11400
C2901       C  0.77647933  0.80394038  0.55394526    -0.01400
C2902       C  0.76348977  0.80536235  0.56332131    -0.06600
H2903       H  0.75617734  0.82800466  0.48715191     0.05900
H2904       H  0.78207366  0.79720905  0.57280280     0.09300
Br2905     Br  0.75033973  0.83126914  0.62453958    -0.06300
Br2906     Br  0.70839962  0.80589002  0.48578800    -0.03200
Br2907     Br  0.78122848  0.82949540  0.44770371    -0.00400
Br2908     Br  0.75609596  0.79480469  0.60793405    -0.04700
C2909       C  0.59124176  0.89324965  0.58423518    -0.12100
C2910       C  0.60320490  0.89503152  0.60527310     0.03300
C2911       C  0.61207470  0.88518270  0.60611130    -0.12700
C2912       C  0.60955841  0.87351018  0.58576492     0.18200
C2913       C  0.59762275  0.87155399  0.56548374    -0.09700
C2914       C  0.58858006  0.88134501  0.56504058    -0.02700
H2915       H  0.62116299  0.88670419  0.62235397     0.04700
C2916       C  0.61986847  0.86390862  0.58444565     0.20200
H2917       H  0.57946564  0.87966404  0.54922229     0.09900
C2918       C  0.61858007  0.85222553  0.60667322    -0.16000
C2919       C  0.62852623  0.84333307  0.60737272     0.02900
C2920       C  0.64010758  0.84618073  0.58591878    -0.11400
C2921       C  0.64131378  0.85794789  0.56410616    -0.01400
C2922       C  0.63136999  0.86668348  0.56296698    -0.06600
H2923       H  0.60984907  0.85007829  0.62393048     0.05900
H2924       H  0.64997494  0.86030167  0.54672338     0.09300
Br2925     Br  0.59342840  0.85588774  0.53658029    -0.06300
Br2926     Br  0.60822388  0.91035404  0.63523667    -0.03200
Br2927     Br  0.62582023  0.82781567  0.63963352    -0.00400
Br2928     Br  0.63383924  0.88210600  0.52992046    -0.04700
C2929       C  0.77345168  0.81964530  0.02376136    -0.12100
C2930       C  0.76755110  0.80946545  0.04679230     0.03300
C2931       C  0.75425860  0.80893693  0.05076557    -0.12700
C2932       C  0.74649512  0.81845347  0.03280311     0.18200
C2933       C  0.75230677  0.82883436  0.01115179    -0.09700
C2934       C  0.76563343  0.82935357  0.00668060    -0.02700
H2935       H  0.74993493  0.80109597  0.06857972     0.04700
C2936       C  0.73246306  0.81766884  0.03968295     0.20200
H2937       H  0.76985937  0.83722726  0.98879458     0.09900
C2938       C  0.72709926  0.82444821  0.07429091    -0.16000
C2939       C  0.71413573  0.82323976  0.08426588     0.02900
C2940       C  0.70616267  0.81504764  0.05943673    -0.11400
C2941       C  0.71154181  0.80825052  0.02469040    -0.01400
C2942       C  0.72453665  0.80957438  0.01456108    -0.06600
H2943       H  0.73311519  0.83053985  0.09430174     0.05900
H2944       H  0.70558289  0.80204557  0.00491928     0.09300
Br2945     Br  0.74234778  0.84233877  0.98636254    -0.06300
Br2946     Br  0.77704700  0.79628385  0.07591303    -0.03200
Br2947     Br  0.70812457  0.83235464  0.13434950    -0.00400
Br2948     Br  0.73103761  0.80037321  0.96561337    -0.04700
C2949       C  0.66230582  0.82793611  0.94090980    -0.12100
C2950       C  0.65503388  0.82215997  0.90702737     0.03300
C2951       C  0.65824887  0.82435500  0.86322619    -0.12700
C2952       C  0.66871992  0.83200361  0.85218558     0.18200
C2953       C  0.67570266  0.83809658  0.88542171    -0.09700
C2954       C  0.67239730  0.83616318  0.92919520    -0.02700
H2955       H  0.65296421  0.81950629  0.83758214     0.04700
C2956       C  0.67312773  0.83210887  0.80644292     0.20200
H2957       H  0.67812864  0.84075020  0.95424836     0.09900
C2958       C  0.66907164  0.84163292  0.77741008    -0.16000
C2959       C  0.67217735  0.84116101  0.73284271     0.02900
C2960       C  0.67967664  0.83099979  0.71684265    -0.11400
C2961       C  0.68413956  0.82182411  0.74701068    -0.01400
C2962       C  0.68081379  0.82223808  0.79110388    -0.06600
H2963       H  0.66310765  0.84923581  0.78923557     0.05900
H2964       H  0.68979243  0.81387850  0.73608668     0.09300
Br2965     Br  0.69042079  0.84831747  0.87264318    -0.06300
Br2966     Br  0.64144319  0.81019932  0.91707668    -0.03200
Br2967     Br  0.66513228  0.85435224  0.69632312    -0.00400
Br2968     Br  0.68640188  0.80869667  0.82897429    -0.04700
C2969       C  0.67452923  0.82458515  0.21135999    -0.12100
C2970       C  0.67099538  0.83661964  0.22839635     0.03300
C2971       C  0.67167697  0.83883743  0.27361881    -0.12700
C2972       C  0.67584200  0.82937774  0.30278621     0.18200
C2973       C  0.67954172  0.81751196  0.28606724    -0.09700
C2974       C  0.67899575  0.81526701  0.24095248    -0.02700
H2975       H  0.66868267  0.84795015  0.28629162     0.04700
C2976       C  0.67492325  0.83153342  0.35065222     0.20200
H2977       H  0.68166371  0.80594502  0.22925561     0.09900
C2978       C  0.66282761  0.83201770  0.36946682    -0.16000
C2979       C  0.66135717  0.83260989  0.41488421     0.02900
C2980       C  0.67221123  0.83257152  0.44274039    -0.11400
C2981       C  0.68434393  0.83300810  0.42353702    -0.01400
C2982       C  0.68574941  0.83255593  0.37792479    -0.06600
H2983       H  0.65443679  0.83157687  0.34864702     0.05900
H2984       H  0.69280334  0.83316360  0.44403454     0.09300
Br2985     Br  0.68445337  0.80368914  0.32378694    -0.06300
Br2986     Br  0.66495514  0.85055400  0.19300124    -0.03200
Br2987     Br  0.64419224  0.83353235  0.43603191    -0.00400
Br2988     Br  0.70259989  0.83321866  0.35429727    -0.04700
C2989       C  0.63087573  0.84143239  0.08730310    -0.12100
C2990       C  0.62936645  0.85140615  0.05661959     0.03300
C2991       C  0.62034605  0.86085226  0.06369563    -0.12700
C2992       C  0.61271772  0.86062006  0.10106742     0.18200
C2993       C  0.61389684  0.85048771  0.13118058    -0.09700
C2994       C  0.62290193  0.84090764  0.12400113    -0.02700
H2995       H  0.61932522  0.86850539  0.04000882     0.04700
C2996       C  0.60372026  0.87120938  0.10724442     0.20200
H2997       H  0.62393571  0.83326403  0.14768826     0.09900
C2998       C  0.59176900  0.87061070  0.08680041    -0.16000
C2999       C  0.58393939  0.88133211  0.08461775     0.02900
C3000       C  0.58813756  0.89301547  0.10283156    -0.11400
C3001       C  0.59995419  0.89343588  0.12464820    -0.01400
C3002       C  0.60767498  0.88262189  0.12724142    -0.06600
H3003       H  0.58876996  0.86190685  0.07070728     0.05900
H3004       H  0.60328611  0.90226297  0.13911803     0.09300
Br3005     Br  0.60365126  0.84961045  0.18275935    -0.06300
Br3006     Br  0.63899398  0.85234875  0.00345192    -0.03200
Br3007     Br  0.56830307  0.87961479  0.05212782    -0.00400
Br3008     Br  0.62380079  0.88390686  0.15677224    -0.04700
C3009       C  0.41975712  0.42421881  0.04185629    -0.12100
C3010       C  0.40946477  0.43166557  0.02632148     0.03300
C3011       C  0.40756706  0.43334117  0.98114858    -0.12700
C3012       C  0.41556272  0.42747270  0.95089206     0.18200
C3013       C  0.42541401  0.41956748  0.96627913    -0.09700
C3014       C  0.42744852  0.41802635  0.01124294    -0.02700
H3015       H  0.39983119  0.43926511  0.96953905     0.04700
C3016       C  0.41402060  0.43017670  0.90352820     0.20200
H3017       H  0.43534940  0.41222446  0.02223935     0.09900
C3018       C  0.41874389  0.44168597  0.88654034    -0.16000
C3019       C  0.41910682  0.44388330  0.84126188     0.02900
C3020       C  0.41478594  0.43436421  0.81203498    -0.11400
C3021       C  0.40924202  0.42321817  0.82950357    -0.01400
C3022       C  0.40877190  0.42111709  0.87475887    -0.06600
H3023       H  0.42254909  0.44883311  0.90859742     0.05900
H3024       H  0.40587588  0.41576158  0.80793757     0.09300
Br3025     Br  0.43667655  0.41101261  0.92725678    -0.06300
Br3026     Br  0.39731089  0.43932035  0.06458905    -0.03200
Br3027     Br  0.42555589  0.46006910  0.82167375    -0.00400
Br3028     Br  0.40130586  0.40555711  0.89589470    -0.04700
C3029       C  0.41421883  0.42161563  0.54175444    -0.12100
C3030       C  0.40669391  0.43112718  0.52116233     0.03300
C3031       C  0.40718766  0.43276358  0.47564351    -0.12700
C3032       C  0.41499422  0.42510354  0.44994478     0.18200
C3033       C  0.42204039  0.41531984  0.46995476    -0.09700
C3034       C  0.42141018  0.41348755  0.51519163    -0.02700
H3035       H  0.40168057  0.44026587  0.46026082     0.04700
C3036       C  0.41644623  0.42799596  0.40286294     0.20200
H3037       H  0.42731816  0.40617333  0.52981536     0.09900
C3038       C  0.42379827  0.43856632  0.39036411    -0.16000
C3039       C  0.42653676  0.44093152  0.34625861     0.02900
C3040       C  0.42171957  0.43266440  0.31358489    -0.11400
C3041       C  0.41384087  0.42241164  0.32636956    -0.01400
C3042       C  0.41126282  0.42000078  0.37048855    -0.06600
H3043       H  0.42774082  0.44480472  0.41523316     0.05900
H3044       H  0.41006251  0.41588651  0.30209330     0.09300
Br3045     Br  0.43371934  0.40508782  0.43752463    -0.06300
Br3046     Br  0.39562730  0.44237440  0.55230376    -0.03200
Br3047     Br  0.43680492  0.45563328  0.33346503    -0.00400
Br3048     Br  0.40095710  0.40545692  0.38516333    -0.04700
C3049       C  0.33589090  0.28727584  0.63051947    -0.12100
C3050       C  0.33014606  0.28613657  0.58881197     0.03300
C3051       C  0.32912450  0.27424360  0.56900971    -0.12700
C3052       C  0.33453856  0.26339971  0.58848054     0.18200
C3053       C  0.34226384  0.26500804  0.62616369    -0.09700
C3054       C  0.34258269  0.27679541  0.64756885    -0.02700
H3055       H  0.32376292  0.27344445  0.53871095     0.04700
C3056       C  0.33217565  0.25076906  0.56785406     0.20200
H3057       H  0.34747331  0.27752526  0.67881677     0.09900
C3058       C  0.33358494  0.24970022  0.52240103    -0.16000
C3059       C  0.33073429  0.23836218  0.50082811     0.02900
C3060       C  0.32756333  0.22733514  0.52505102    -0.11400
C3061       C  0.32583078  0.22836918  0.57040008    -0.01400
C3062       C  0.32738469  0.24014969  0.59143012    -0.06600
H3063       H  0.33666592  0.25785222  0.50326270     0.05900
H3064       H  0.32279245  0.22011833  0.58913675     0.09300
Br3065     Br  0.35279589  0.25163836  0.64908724    -0.06300
Br3066     Br  0.32326590  0.30042107  0.55765190    -0.03200
Br3067     Br  0.33115590  0.23875444  0.43816664    -0.00400
Br3068     Br  0.32133828  0.24153994  0.65044481    -0.04700
C3069       C  0.33389196  0.21504792  0.86673227    -0.12100
C3070       C  0.33105924  0.21576336  0.82155082     0.03300
C3071       C  0.33114017  0.22758536  0.80029991    -0.12700
C3072       C  0.33403056  0.23873738  0.82346061     0.18200
C3073       C  0.33812059  0.23785741  0.86742390    -0.09700
C3074       C  0.33823020  0.22601963  0.88844876    -0.02700
H3075       H  0.32816475  0.22818326  0.76630504     0.04700
C3076       C  0.33082350  0.25116198  0.80368179     0.20200
H3077       H  0.34030658  0.22567625  0.92324365     0.09900
C3078       C  0.31793373  0.25410400  0.79646511    -0.16000
C3079       C  0.31432306  0.26620032  0.78166718     0.02900
C3080       C  0.32369661  0.27560175  0.77509059    -0.11400
C3081       C  0.33659626  0.27247832  0.78077730    -0.01400
C3082       C  0.34021776  0.26032043  0.79423084    -0.06600
H3083       H  0.31064564  0.24703410  0.80328096     0.05900
H3084       H  0.34393528  0.27949860  0.77395740     0.09300
Br3085     Br  0.34170969  0.25265195  0.90228274    -0.06300
Br3086     Br  0.32615807  0.20104804  0.78817361    -0.03200
Br3087     Br  0.29657120  0.26958891  0.77316583    -0.00400
Br3088     Br  0.35804745  0.25658910  0.79808028    -0.04700
C3089       C  0.35296553  0.34398460  0.71266379    -0.12100
C3090       C  0.35175051  0.35547644  0.68908355     0.03300
C3091       C  0.36220889  0.36374763  0.68553003    -0.12700
C3092       C  0.37391470  0.36091090  0.70587751     0.18200
C3093       C  0.37507322  0.34943337  0.72968509    -0.09700
C3094       C  0.36473823  0.34097648  0.73203045    -0.02700
H3095       H  0.36113955  0.37258666  0.66746313     0.04700
C3096       C  0.38424139  0.37066012  0.70502749     0.20200
H3097       H  0.36571157  0.33228145  0.75098671     0.09900
C3098       C  0.38178553  0.38259895  0.72319349    -0.16000
C3099       C  0.39057067  0.39258887  0.71988340     0.02900
C3100       C  0.40239331  0.39069406  0.69900393    -0.11400
C3101       C  0.40508508  0.37856417  0.68230118    -0.01400
C3102       C  0.39602300  0.36866623  0.68429346    -0.06600
H3103       H  0.37275626  0.38427240  0.73903128     0.05900
H3104       H  0.41390201  0.37702340  0.66498625     0.09300
Br3105     Br  0.39003693  0.34542567  0.76326649    -0.06300
Br3106     Br  0.33615175  0.36021398  0.66044847    -0.03200
Br3107     Br  0.38550761  0.40862557  0.74388061    -0.00400
Br3108     Br  0.39960339  0.35314473  0.65402865    -0.04700
C3109       C  0.31945513  0.27874268  0.14860912    -0.12100
C3110       C  0.31229905  0.26827998  0.16528471     0.03300
C3111       C  0.31032927  0.25750152  0.13943824    -0.12700
C3112       C  0.31506427  0.25692392  0.09686914     0.18200
C3113       C  0.32111749  0.26767539  0.07871329    -0.09700
C3114       C  0.32334069  0.27842028  0.10459712    -0.02700
H3115       H  0.30537610  0.24932478  0.15308114     0.04700
C3116       C  0.31447071  0.24470957  0.07327965     0.20200
H3117       H  0.32851001  0.28638354  0.09049092     0.09900
C3118       C  0.30594614  0.24316482  0.03827796    -0.16000
C3119       C  0.30561458  0.23185826  0.01417706     0.02900
C3120       C  0.31416815  0.22187077  0.02471345    -0.11400
C3121       C  0.32230024  0.22335767  0.06122808    -0.01400
C3122       C  0.32246396  0.23459011  0.08545126    -0.06600
H3123       H  0.29955700  0.25084576  0.02955178     0.05900
H3124       H  0.32883258  0.21586924  0.07059645     0.09300
Br3125     Br  0.32712164  0.26785043  0.01952893    -0.06300
Br3126     Br  0.30502974  0.26754322  0.22288227    -0.03200
Br3127     Br  0.29303046  0.23090132  0.96831080    -0.00400
Br3128     Br  0.33415219  0.23584979  0.13394331    -0.04700
C3129       C  0.35196834  0.28002738  0.28734112    -0.12100
C3130       C  0.35719088  0.27006882  0.26214309     0.03300
C3131       C  0.35975781  0.25823018  0.28183119    -0.12700
C3132       C  0.35716705  0.25598170  0.32629945     0.18200
C3133       C  0.35378164  0.26645325  0.35248153    -0.09700
C3134       C  0.35111566  0.27824704  0.33289846    -0.02700
H3135       H  0.36274778  0.25039604  0.26147949     0.04700
C3136       C  0.35565067  0.24256482  0.34233347     0.20200
H3137       H  0.34756248  0.28584991  0.35319515     0.09900
C3138       C  0.36283260  0.23788965  0.37793811    -0.16000
C3139       C  0.35987622  0.22608012  0.39779608     0.02900
C3140       C  0.34968377  0.21851602  0.38126543    -0.11400
C3141       C  0.34356649  0.22269018  0.34258685    -0.01400
C3142       C  0.34614768  0.23461412  0.32408259    -0.06600
H3143       H  0.37033055  0.24376367  0.39186564     0.05900
H3144       H  0.33579313  0.21718626  0.32863228     0.09300
Br3145     Br  0.35152171  0.26510865  0.41453211    -0.06300
Br3146     Br  0.35956915  0.27122940  0.19995125    -0.03200
Br3147     Br  0.36945897  0.22157305  0.44926696    -0.00400
Br3148     Br  0.33497177  0.24018620  0.27772395    -0.04700
C3149       C  0.32562812  0.33183444  0.09692182    -0.12100
C3150       C  0.33414776  0.33901237  0.07127574     0.03300
C3151       C  0.33255532  0.33949796  0.02577266    -0.12700
C3152       C  0.32260362  0.33277661  0.00530537     0.18200
C3153       C  0.31370744  0.32611079  0.03115742    -0.09700
C3154       C  0.31520480  0.32577862  0.07675615    -0.02700
H3155       H  0.33946309  0.34460771  0.00610045     0.04700
C3156       C  0.32281129  0.33129766  0.95722783     0.20200
H3157       H  0.30875325  0.32001727  0.09617877     0.09900
C3158       C  0.33085759  0.32211629  0.93954848    -0.16000
C3159       C  0.33150299  0.32021314  0.89434379     0.02900
C3160       C  0.32408682  0.32781288  0.86553683    -0.11400
C3161       C  0.31596674  0.33700438  0.88367740    -0.01400
C3162       C  0.31526930  0.33874957  0.92904760    -0.06600
H3163       H  0.33655715  0.31623697  0.96127560     0.05900
H3164       H  0.31010383  0.34288542  0.86253257     0.09300
Br3165     Br  0.30015914  0.31632187  0.00527517    -0.06300
Br3166     Br  0.34837524  0.34780977  0.09703878    -0.03200
Br3167     Br  0.34211875  0.30648943  0.87545090    -0.00400
Br3168     Br  0.30389842  0.35134555  0.95118605    -0.04700
C3169       C  0.32173688  0.32653023  0.37007796    -0.12100
C3170       C  0.32529624  0.33819167  0.38988499     0.03300
C3171       C  0.32246087  0.34029253  0.43420695    -0.12700
C3172       C  0.31600286  0.33104690  0.45929320     0.18200
C3173       C  0.31216464  0.31962411  0.43909933    -0.09700
C3174       C  0.31517740  0.31744272  0.39562254    -0.02700
H3175       H  0.32531435  0.34919641  0.44924742     0.04700
C3176       C  0.31379998  0.33305477  0.50671306     0.20200
H3177       H  0.31212608  0.30844879  0.38172796     0.09900
C3178       C  0.30134355  0.33235390  0.52322710    -0.16000
C3179       C  0.29917802  0.33149703  0.56835923     0.02900
C3180       C  0.30952578  0.33215997  0.59774353    -0.11400
C3181       C  0.32183579  0.33408275  0.58136412    -0.01400
C3182       C  0.32408622  0.33422559  0.53636186    -0.06600
H3183       H  0.29333110  0.33165403  0.50081165     0.05900
H3184       H  0.32990937  0.33430284  0.60367215     0.09300
Br3185     Br  0.30282065  0.30635752  0.46849212    -0.06300
Br3186     Br  0.33382307  0.35168246  0.35895688    -0.03200
Br3187     Br  0.28206207  0.32899748  0.58819651    -0.00400
Br3188     Br  0.34150970  0.33413992  0.51782540    -0.04700
C3189       C  0.36494151  0.34005469  0.22422395    -0.12100
C3190       C  0.37441591  0.33918549  0.19179114     0.03300
C3191       C  0.38359206  0.34887537  0.18761171    -0.12700
C3192       C  0.38363685  0.35941189  0.21565251     0.18200
C3193       C  0.37460720  0.35996691  0.24937769    -0.09700
C3194       C  0.36530946  0.35040718  0.25320452    -0.02700
H3195       H  0.39046965  0.34840841  0.16142006     0.04700
C3196       C  0.39243479  0.37022458  0.20698410     0.20200
H3197       H  0.35807841  0.35126409  0.27811899     0.09900
C3198       C  0.38896240  0.37942056  0.17573791    -0.16000
C3199       C  0.39688423  0.38989528  0.16685443     0.02900
C3200       C  0.40853842  0.39137304  0.18981132    -0.11400
C3201       C  0.41210108  0.38197692  0.22045587    -0.01400
C3202       C  0.40415612  0.37148862  0.22913598    -0.06600
H3203       H  0.38005520  0.37839113  0.15795974     0.05900
H3204       H  0.42105380  0.38285046  0.23804997     0.09300
Br3205     Br  0.37424526  0.37395629  0.28946549    -0.06300
Br3206     Br  0.37453838  0.32576862  0.14935967    -0.03200
Br3207     Br  0.39165594  0.40127911  0.12074533    -0.00400
Br3208     Br  0.40967030  0.35904131  0.27116825    -0.04700
C3209       C  0.42387686  0.53460029  0.61768060    -0.12100
C3210       C  0.43231488  0.52834546  0.64671360     0.03300
C3211       C  0.43096277  0.51526838  0.65417719    -0.12700
C3212       C  0.42127880  0.50827866  0.63332466     0.18200
C3213       C  0.41246074  0.51459201  0.60623458    -0.09700
C3214       C  0.41378348  0.52766981  0.59869367    -0.02700
H3215       H  0.43762025  0.51046608  0.67581729     0.04700
C3216       C  0.42094555  0.49433224  0.63872203     0.20200
H3217       H  0.40718393  0.53233249  0.57648463     0.09900
C3218       C  0.41150968  0.48862883  0.66458396    -0.16000
C3219       C  0.41152271  0.47548378  0.67247826     0.02900
C3220       C  0.42122019  0.46789773  0.65440895    -0.11400
C3221       C  0.43036842  0.47364881  0.62733338    -0.01400
C3222       C  0.43027532  0.48671767  0.61934663    -0.06600
H3223       H  0.40430252  0.49448160  0.67952538     0.05900
H3224       H  0.43778244  0.46797016  0.61277308     0.09300
Br3225     Br  0.39897726  0.50558487  0.57682855    -0.06300
Br3226     Br  0.44555103  0.53715551  0.67827145    -0.03200
Br3227     Br  0.39864480  0.46880908  0.71075577    -0.00400
Br3228     Br  0.44311208  0.49373449  0.58173791    -0.04700
C3229       C  0.42766011  0.53585731  0.12240998    -0.12100
C3230       C  0.43737211  0.52787449  0.10640909     0.03300
C3231       C  0.43734545  0.51484514  0.11644599    -0.12700
C3232       C  0.42772698  0.50934776  0.14192079     0.18200
C3233       C  0.41790970  0.51718982  0.15752933    -0.09700
C3234       C  0.41788653  0.53030088  0.14750320    -0.02700
H3235       H  0.44484771  0.50889186  0.10380451     0.04700
C3236       C  0.42839060  0.49545162  0.15188426     0.20200
H3237       H  0.41030765  0.53619814  0.15985640     0.09900
C3238       C  0.43702696  0.49113042  0.18383687    -0.16000
C3239       C  0.43878198  0.47806295  0.19163115     0.02900
C3240       C  0.43179670  0.46895508  0.16726629    -0.11400
C3241       C  0.42299268  0.47331350  0.13573280    -0.01400
C3242       C  0.42139587  0.48639880  0.12752417    -0.06600
H3243       H  0.44251628  0.49798511  0.20263988     0.05900
H3244       H  0.41752476  0.46649257  0.11670290     0.09300
Br3245     Br  0.40453054  0.51043078  0.19328309    -0.06300
Br3246     Br  0.45049771  0.53384316  0.06786546    -0.03200
Br3247     Br  0.45040306  0.47327911  0.23742162    -0.00400
Br3248     Br  0.41000183  0.49149607  0.08142865    -0.04700
C3249       C  0.41819218  0.56740849  0.96187725    -0.12100
C3250       C  0.42637798  0.56068696  0.93352353     0.03300
C3251       C  0.42620671  0.56329958  0.88860817    -0.12700
C3252       C  0.41796197  0.57239840  0.87080996     0.18200
C3253       C  0.40932680  0.57859372  0.89826198    -0.09700
C3254       C  0.40952896  0.57613385  0.94333098    -0.02700
H3255       H  0.43262653  0.55823994  0.86731909     0.04700
C3256       C  0.41812594  0.57473043  0.82311034     0.20200
H3257       H  0.40311836  0.58139761  0.96402861     0.09900
C3258       C  0.41378515  0.56508334  0.79530728    -0.16000
C3259       C  0.41415922  0.56652982  0.74986831     0.02900
C3260       C  0.41883129  0.57804738  0.73120580    -0.11400
C3261       C  0.42325871  0.58768900  0.75952988    -0.01400
C3262       C  0.42305767  0.58605854  0.80502064    -0.06600
H3263       H  0.41024185  0.55623546  0.80920159     0.05900
H3264       H  0.42716740  0.59646335  0.74635248     0.09300
Br3265     Br  0.39702202  0.59036744  0.87547017    -0.06300
Br3266     Br  0.43799223  0.54770590  0.95277174    -0.03200
Br3267     Br  0.40876589  0.55190588  0.71668486    -0.00400
Br3268     Br  0.43027364  0.59922888  0.84100952    -0.04700
C3269       C  0.41490736  0.58289411  0.22969956    -0.12100
C3270       C  0.42338124  0.58894125  0.25947462     0.03300
C3271       C  0.42260388  0.58627160  0.30431983    -0.12700
C3272       C  0.41358460  0.57762474  0.32069028     0.18200
C3273       C  0.40463983  0.57219255  0.29166955    -0.09700
C3274       C  0.40540019  0.57478269  0.24669502    -0.02700
H3275       H  0.42941786  0.59062744  0.32655396     0.04700
C3276       C  0.41418845  0.57398592  0.36768938     0.20200
H3277       H  0.39873284  0.57010601  0.22473168     0.09900
C3278       C  0.40437711  0.57749719  0.39596580    -0.16000
C3279       C  0.40518496  0.57500681  0.44108081     0.02900
C3280       C  0.41610191  0.56895446  0.45882502    -0.11400
C3281       C  0.42565712  0.56501766  0.42986275    -0.01400
C3282       C  0.42479561  0.56748940  0.38494136    -0.06600
H3283       H  0.39614267  0.58242996  0.38294773     0.05900
H3284       H  0.43413831  0.56038651  0.44225952     0.09300
Br3285     Br  0.39174150  0.56055141  0.31146643    -0.06300
Br3286     Br  0.43701992  0.60004950  0.24199901    -0.03200
Br3287     Br  0.39097654  0.58014259  0.47586062    -0.00400
Br3288     Br  0.43847179  0.56186747  0.34855327    -0.04700
C3289       C  0.35921237  0.66060833  0.57825417    -0.12100
C3290       C  0.37068697  0.66255150  0.55521007     0.03300
C3291       C  0.38040867  0.65355024  0.55824877    -0.12700
C3292       C  0.37891319  0.64257753  0.58392324     0.18200
C3293       C  0.36775179  0.64093518  0.60869044    -0.09700
C3294       C  0.35793083  0.64983148  0.60523281    -0.02700
H3295       H  0.38895433  0.65484357  0.53904075     0.04700
C3296       C  0.38856234  0.63244365  0.58163018     0.20200
H3297       H  0.34924006  0.64829941  0.62345723     0.09900
C3298       C  0.40052198  0.63415923  0.60151400    -0.16000
C3299       C  0.40941806  0.62426453  0.60229216     0.02900
C3300       C  0.40621944  0.61238005  0.58346386    -0.11400
C3301       C  0.39451527  0.61099473  0.56159445    -0.01400
C3302       C  0.38582640  0.62096524  0.55986348    -0.06600
H3303       H  0.40279283  0.64308287  0.61747390     0.05900
H3304       H  0.39204756  0.60204070  0.54617791     0.09300
Br3305     Br  0.36554005  0.62663758  0.64737339    -0.06300
Br3306     Br  0.37318656  0.67656721  0.51551958    -0.03200
Br3307     Br  0.42526744  0.62730078  0.63233293    -0.00400
Br3308     Br  0.37037205  0.61851861  0.52700536    -0.04700
C3309       C  0.34444240  0.78257520  0.73083675    -0.12100
C3310       C  0.35423310  0.77459390  0.74741281     0.03300
C3311       C  0.35611668  0.76245980  0.72920254    -0.12700
C3312       C  0.34823433  0.75789095  0.69535967     0.18200
C3313       C  0.33848350  0.76575538  0.67908202    -0.09700
C3314       C  0.33697905  0.77800527  0.69558920    -0.02700
H3315       H  0.36351864  0.75639096  0.74244565     0.04700
C3316       C  0.34954515  0.74466450  0.67897380     0.20200
H3317       H  0.32916187  0.78359001  0.68267549     0.09900
C3318       C  0.34615864  0.73436191  0.70616903    -0.16000
C3319       C  0.34435793  0.72211243  0.68879049     0.02900
C3320       C  0.34596220  0.72007375  0.64354235    -0.11400
C3321       C  0.35072600  0.73010246  0.61762589    -0.01400
C3322       C  0.35249416  0.74229197  0.63485136    -0.06600
H3323       H  0.34416075  0.73599600  0.74041504     0.05900
H3324       H  0.35207344  0.72877732  0.58290305     0.09300
Br3325     Br  0.32585407  0.75968364  0.63816594    -0.06300
Br3326     Br  0.36496349  0.77916886  0.79606047    -0.03200
Br3327     Br  0.33946938  0.70857484  0.72778471    -0.00400
Br3328     Br  0.35794566  0.75560191  0.59576332    -0.04700
C3329       C  0.32863440  0.72734661  0.49919717    -0.12100
C3330       C  0.34077634  0.73116203  0.48370460     0.03300
C3331       C  0.34245247  0.74316574  0.46485931    -0.12700
C3332       C  0.33231276  0.75161879  0.46097771     0.18200
C3333       C  0.32019354  0.74792217  0.47634305    -0.09700
C3334       C  0.31848384  0.73592091  0.49586599    -0.02700
H3335       H  0.35177967  0.74596159  0.45313914     0.04700
C3336       C  0.33448440  0.76388078  0.43820825     0.20200
H3337       H  0.30915629  0.73318525  0.50768929     0.09900
C3338       C  0.33721909  0.76379382  0.39336373    -0.16000
C3339       C  0.33789922  0.77514720  0.36935616     0.02900
C3340       C  0.33546119  0.78684800  0.39031102    -0.11400
C3341       C  0.33411776  0.78694406  0.43612107    -0.01400
C3342       C  0.33381213  0.77558458  0.46016744    -0.06600
H3343       H  0.33827897  0.75479957  0.37656956     0.05900
H3344       H  0.33252998  0.79584927  0.45296026     0.09300
Br3345     Br  0.30559078  0.75863889  0.46933477    -0.06300
Br3346     Br  0.35583796  0.72098647  0.48908833    -0.03200
Br3347     Br  0.34095648  0.77371920  0.30766564    -0.00400
Br3348     Br  0.33220340  0.77646394  0.52259878    -0.04700
C3349       C  0.31260544  0.67323514  0.69734210    -0.12100
C3350       C  0.30022515  0.67239953  0.71444452     0.03300
C3351       C  0.29853154  0.67039967  0.75937259    -0.12700
C3352       C  0.30906652  0.66937568  0.78773089     0.18200
C3353       C  0.32142470  0.66946534  0.77010776    -0.09700
C3354       C  0.32309968  0.67127472  0.72508862    -0.02700
H3355       H  0.28898888  0.67024251  0.77255920     0.04700
C3356       C  0.30705597  0.66994532  0.83560960     0.20200
H3357       H  0.33265584  0.67193169  0.71211782     0.09900
C3358       C  0.30958690  0.65934213  0.86238603    -0.16000
C3359       C  0.30845913  0.66007180  0.90814234     0.02900
C3360       C  0.30449977  0.67157728  0.92773430    -0.11400
C3361       C  0.30167858  0.68201806  0.90022281    -0.01400
C3362       C  0.30307270  0.68133665  0.85495236    -0.06600
H3363       H  0.31268681  0.65054381  0.84765607     0.05900
H3364       H  0.29892081  0.69106345  0.91398161     0.09300
Br3365     Br  0.33632017  0.66845363  0.80661098    -0.06300
Br3366     Br  0.28541972  0.67405189  0.67768178    -0.03200
Br3367     Br  0.31256366  0.64504512  0.94125520    -0.00400
Br3368     Br  0.30042853  0.69661778  0.82127394    -0.04700
C3369       C  0.31967614  0.66994758  0.19813794    -0.12100
C3370       C  0.30909732  0.67220644  0.22517901     0.03300
C3371       C  0.31066272  0.67226889  0.27078386    -0.12700
C3372       C  0.32261436  0.67003901  0.29002018     0.18200
C3373       C  0.33295070  0.66691436  0.26320351    -0.09700
C3374       C  0.33146072  0.66702924  0.21772144    -0.02700
H3375       H  0.30262706  0.67453549  0.29129856     0.04700
C3376       C  0.32423159  0.67147097  0.33788645     0.20200
H3377       H  0.33964321  0.66509149  0.19747227     0.09900
C3378       C  0.31838681  0.66270468  0.36615287    -0.16000
C3379       C  0.31968308  0.66382429  0.41165268     0.02900
C3380       C  0.32714034  0.67381853  0.42957526    -0.11400
C3381       C  0.33291644  0.68261576  0.40095682    -0.01400
C3382       C  0.33134090  0.68164608  0.35562769    -0.06600
H3383       H  0.31278255  0.65493523  0.35268039     0.05900
H3384       H  0.33833099  0.69058736  0.41392944     0.09300
Br3385     Br  0.34928070  0.66250002  0.28725605    -0.06300
Br3386     Br  0.29261492  0.67641976  0.20202606    -0.03200
Br3387     Br  0.31125092  0.65119542  0.44690698    -0.00400
Br3388     Br  0.33838814  0.69491033  0.31946770    -0.04700
C3389       C  0.39842789  0.61025616  0.06745573    -0.12100
C3390       C  0.40011514  0.62327818  0.07803896     0.03300
C3391       C  0.39030688  0.63202031  0.06980983    -0.12700
C3392       C  0.37868286  0.62811013  0.05125486     0.18200
C3393       C  0.37716506  0.61526240  0.03897888    -0.09700
C3394       C  0.38692359  0.60647835  0.04733881    -0.02700
H3395       H  0.39153633  0.64183552  0.07987201     0.04700
C3396       C  0.36783265  0.63718703  0.04995777     0.20200
H3397       H  0.38544270  0.59659180  0.03854700     0.09900
C3398       C  0.36746183  0.64717107  0.01905131    -0.16000
C3399       C  0.35751286  0.65612002  0.01904318     0.02900
C3400       C  0.34775686  0.65517264  0.05050227    -0.11400
C3401       C  0.34814570  0.64509138  0.08092359    -0.01400
C3402       C  0.35805265  0.63626419  0.08110438    -0.06600
H3403       H  0.37491380  0.64799014  0.99487752     0.05900
H3404       H  0.34085909  0.64426831  0.10572468     0.09300
Br3405     Br  0.36177856  0.60926706  0.01161031    -0.06300
Br3406     Br  0.41497015  0.62957110  0.10804708    -0.03200
Br3407     Br  0.35731855  0.66899172  0.97422099    -0.00400
Br3408     Br  0.35814024  0.62346004  0.12619022    -0.04700
C3409       C  0.31454817  0.72223435  0.13247055    -0.12100
C3410       C  0.32374549  0.72620646  0.16378505     0.03300
C3411       C  0.32225211  0.73779925  0.18554521    -0.12700
C3412       C  0.31171191  0.74559026  0.17722296     0.18200
C3413       C  0.30249353  0.74163676  0.14648797    -0.09700
C3414       C  0.30396071  0.73009510  0.12449393    -0.02700
H3415       H  0.32947072  0.74086146  0.20881305     0.04700
C3416       C  0.31077570  0.75795858  0.20006905     0.20200
H3417       H  0.29672752  0.72726403  0.10095187     0.09900
C3418       C  0.31205794  0.76931519  0.17605596    -0.16000
C3419       C  0.31231412  0.78114395  0.19705432     0.02900
C3420       C  0.31127864  0.78172923  0.24318032    -0.11400
C3421       C  0.30939112  0.77034633  0.26677290    -0.01400
C3422       C  0.30928159  0.75855503  0.24575693    -0.06600
H3423       H  0.31314786  0.76894828  0.14083114     0.05900
H3424       H  0.30862278  0.77053090  0.30213020     0.09300
Br3425     Br  0.28759867  0.75153701  0.13412356    -0.06300
Br3426     Br  0.33892750  0.71681939  0.17723524    -0.03200
Br3427     Br  0.31390888  0.79603065  0.16058758    -0.00400
Br3428     Br  0.30731379  0.74351292  0.28106511    -0.04700
C3429       C  0.33346889  0.71491825  0.97685915    -0.12100
C3430       C  0.33315459  0.71459944  0.93078032     0.03300
C3431       C  0.33295095  0.72600668  0.90686737    -0.12700
C3432       C  0.33280480  0.73776000  0.92852252     0.18200
C3433       C  0.33350076  0.73803659  0.97463320    -0.09700
C3434       C  0.33419190  0.72667142  0.99825736    -0.02700
H3435       H  0.33241020  0.72571013  0.87144888     0.04700
C3436       C  0.33111991  0.74964414  0.90322209     0.20200
H3437       H  0.33385579  0.72702876  0.03370968     0.09900
C3438       C  0.31964713  0.75179940  0.88054800    -0.16000
C3439       C  0.31719567  0.76362723  0.86083294     0.02900
C3440       C  0.32611873  0.77364719  0.86556451    -0.11400
C3441       C  0.33782824  0.77116701  0.88639445    -0.01400
C3442       C  0.34049630  0.75922108  0.90400517    -0.06600
H3443       H  0.31249475  0.74433143  0.87887930     0.05900
H3444       H  0.34514389  0.77848368  0.88797442     0.09300
Br3445     Br  0.33164969  0.75350931  0.00730336    -0.06300
Br3446     Br  0.33236507  0.69879303  0.89964143    -0.03200
Br3447     Br  0.30149769  0.76552005  0.82901961    -0.00400
Br3448     Br  0.35722759  0.75626151  0.92746436    -0.04700
C3449       C  0.07515108  0.56523854  0.59187793    -0.12100
C3450       C  0.06940538  0.55665276  0.62172956     0.03300
C3451       C  0.07041915  0.55881772  0.66686590    -0.12700
C3452       C  0.07716896  0.56935677  0.68320295     0.18200
C3453       C  0.08358250  0.57745198  0.65378624    -0.09700
C3454       C  0.08248872  0.57540550  0.60866003    -0.02700
H3455       H  0.06573679  0.55234022  0.68940310     0.04700
C3456       C  0.07721358  0.57177468  0.73097057     0.20200
H3457       H  0.08709360  0.58207419  0.58660985     0.09900
C3458       C  0.08385891  0.56354393  0.75905404    -0.16000
C3459       C  0.08341961  0.56502349  0.80461753     0.02900
C3460       C  0.07604246  0.57491703  0.82297196    -0.11400
C3461       C  0.06969122  0.58331589  0.79437438    -0.01400
C3462       C  0.07017286  0.58178987  0.74903361    -0.06600
H3463       H  0.08934029  0.55583742  0.74538649     0.05900
H3464       H  0.06389996  0.59090584  0.80724593     0.09300
Br3465     Br  0.09396020  0.59138942  0.67382250    -0.06300
Br3466     Br  0.06036777  0.54161153  0.60346666    -0.03200
Br3467     Br  0.09322208  0.55314163  0.83881674    -0.00400
Br3468     Br  0.06037685  0.59324414  0.71361173    -0.04700
C3469       C  0.07538806  0.56338406  0.09436822    -0.12100
C3470       C  0.06677704  0.55912954  0.12701261     0.03300
C3471       C  0.06935628  0.56164211  0.17112815    -0.12700
C3472       C  0.08045505  0.56808371  0.18400147     0.18200
C3473       C  0.08954087  0.57135822  0.15236979    -0.09700
C3474       C  0.08694938  0.56908042  0.10802632    -0.02700
H3475       H  0.06245151  0.55886318  0.19564555     0.04700
C3476       C  0.08180004  0.57188375  0.23033661     0.20200
H3477       H  0.09386265  0.57221341  0.08407380     0.09900
C3478       C  0.08836106  0.56402514  0.25979100    -0.16000
C3479       C  0.08782828  0.56618756  0.30499130     0.02900
C3480       C  0.08027775  0.57625428  0.32140634    -0.11400
C3481       C  0.07456008  0.58464624  0.29124431    -0.01400
C3482       C  0.07533013  0.58256129  0.24622348    -0.06600
H3483       H  0.09358529  0.55593149  0.24763308     0.05900
H3484       H  0.06896344  0.59258501  0.30258958     0.09300
Br3485     Br  0.10530764  0.57945531  0.16819742    -0.06300
Br3486     Br  0.05105145  0.55030450  0.11504389    -0.03200
Br3487     Br  0.09762536  0.55489566  0.34153371    -0.00400
Br3488     Br  0.06700192  0.59433022  0.20764712    -0.04700
C3489       C  0.20524144  0.69125588  0.04601577    -0.12100
C3490       C  0.21456127  0.70053940  0.03588270     0.03300
C3491       C  0.22731713  0.69852696  0.04796974    -0.12700
C3492       C  0.23101325  0.68747486  0.07076774     0.18200
C3493       C  0.22153250  0.67879503  0.08430969    -0.09700
C3494       C  0.20885770  0.68060987  0.07126445    -0.02700
H3495       H  0.23448416  0.70539512  0.03797770     0.04700
C3496       C  0.24483073  0.68486339  0.07712086     0.20200
H3497       H  0.20178157  0.67356975  0.08057198     0.09900
C3498       C  0.25232585  0.69317746  0.10247248    -0.16000
C3499       C  0.26562757  0.69201412  0.10412350     0.02900
C3500       C  0.27171352  0.68233439  0.08009325    -0.11400
C3501       C  0.26412483  0.67361718  0.05669181    -0.01400
C3502       C  0.25086417  0.67491337  0.05450408    -0.06600
H3503       H  0.24782973  0.70084570  0.12005620     0.05900
H3504       H  0.26858078  0.66627971  0.03739737     0.09300
Br3505     Br  0.22540751  0.66439725  0.12088489    -0.06300
Br3506     Br  0.21072704  0.71557931  0.00251522    -0.03200
Br3507     Br  0.27493832  0.70401346  0.13947773    -0.00400
Br3508     Br  0.24163764  0.66372291  0.01598428    -0.04700
C3509       C  0.13300764  0.65981968  0.98968378    -0.12100
C3510       C  0.11978407  0.66188876  0.98365378     0.03300
C3511       C  0.11154438  0.65149209  0.97700511    -0.12700
C3512       C  0.11602825  0.63891902  0.97792472     0.18200
C3513       C  0.12918123  0.63686248  0.98326338    -0.09700
C3514       C  0.13746962  0.64720260  0.98842934    -0.02700
H3515       H  0.10146537  0.65321091  0.97235772     0.04700
C3516       C  0.10687217  0.62808927  0.97430887     0.20200
H3517       H  0.14749973  0.64523247  0.99303197     0.09900
C3518       C  0.10835355  0.61911923  0.94083858    -0.16000
C3519       C  0.10031021  0.60848601  0.93769473     0.02900
C3520       C  0.09012567  0.60696091  0.96727694    -0.11400
C3521       C  0.08840396  0.61610026  0.99997456    -0.01400
C3522       C  0.09681072  0.62643995  0.00426650    -0.06600
H3523       H  0.11592204  0.62032498  0.91725037     0.05900
H3524       H  0.08070345  0.61498435  0.02312308     0.09300
Br3525     Br  0.13636143  0.62011822  0.98736975    -0.06300
Br3526     Br  0.11200161  0.67836864  0.98650877    -0.03200
Br3527     Br  0.10351589  0.59665893  0.89127338    -0.00400
Br3528     Br  0.09462433  0.63748915  0.05346026    -0.04700
C3529       C  0.14594427  0.78202733  0.84680408    -0.12100
C3530       C  0.15092586  0.77675481  0.88626170     0.03300
C3531       C  0.14625608  0.76512732  0.90179747    -0.12700
C3532       C  0.13668892  0.75847425  0.87932385     0.18200
C3533       C  0.13076665  0.76422754  0.84294448    -0.09700
C3534       C  0.13539758  0.77591465  0.82694734    -0.02700
H3535       H  0.15072373  0.76080746  0.93028946     0.04700
C3536       C  0.13474440  0.74493659  0.89147991     0.20200
H3537       H  0.13117792  0.77982793  0.79738887     0.09900
C3538       C  0.12918837  0.74198298  0.93186815    -0.16000
C3539       C  0.13152274  0.73027909  0.95266757     0.02900
C3540       C  0.13985774  0.72140583  0.93324502    -0.11400
C3541       C  0.14402532  0.72381079  0.89028433    -0.01400
C3542       C  0.14153466  0.73543443  0.86942287    -0.06600
H3543       H  0.12393270  0.74923733  0.94903277     0.05900
H3544       H  0.15021137  0.71708512  0.87428199     0.09300
Br3545     Br  0.11680955  0.75614784  0.81314755    -0.06300
Br3546     Br  0.16476767  0.78396718  0.91978190    -0.03200
Br3547     Br  0.12435156  0.72800021  0.00979863    -0.00400
Br3548     Br  0.14932301  0.73864093  0.81371901    -0.04700
C3549       C  0.14412255  0.78710391  0.19123466    -0.12100
C3550       C  0.14605102  0.78664332  0.14569434     0.03300
C3551       C  0.14707945  0.77485888  0.12510957    -0.12700
C3552       C  0.14667842  0.76355804  0.14977082     0.18200
C3553       C  0.14418756  0.76404536  0.19494646    -0.09700
C3554       C  0.14235949  0.77576731  0.21487605    -0.02700
H3555       H  0.14903620  0.77452482  0.09035541     0.04700
C3556       C  0.15001108  0.75149653  0.12872317     0.20200
H3557       H  0.14144593  0.77602471  0.25020626     0.09900
C3558       C  0.16243268  0.74982565  0.11320562    -0.16000
C3559       C  0.16595237  0.73844402  0.09318439     0.02900
C3560       C  0.15694271  0.72851704  0.08900632    -0.11400
C3561       C  0.14462015  0.73017841  0.10559725    -0.01400
C3562       C  0.14104607  0.74161249  0.12456017    -0.06600
H3563       H  0.16940732  0.75740721  0.11679389     0.05900
H3564       H  0.13749146  0.72274318  0.10194782     0.09300
Br3565     Br  0.14553648  0.74934301  0.23237645    -0.06300
Br3566     Br  0.14878412  0.80181742  0.11153606    -0.03200
Br3567     Br  0.18321023  0.73683866  0.07388904    -0.00400
Br3568     Br  0.12361969  0.74356050  0.14171026    -0.04700
C3569       C  0.21488003  0.67817762  0.52173823    -0.12100
C3570       C  0.22293849  0.67064801  0.49596056     0.03300
C3571       C  0.23618932  0.67167132  0.50107799    -0.12700
C3572       C  0.24161158  0.67990807  0.53234091     0.18200
C3573       C  0.23349464  0.68702586  0.55926781    -0.09700
C3574       C  0.22029918  0.68623266  0.55343995    -0.02700
H3575       H  0.24230568  0.66618109  0.48002973     0.04700
C3576       C  0.25569394  0.68117507  0.53597598     0.20200
H3577       H  0.21421097  0.69202949  0.57362715     0.09900
C3578       C  0.26151551  0.69303069  0.52794467    -0.16000
C3579       C  0.27468258  0.69479917  0.53348050     0.02900
C3580       C  0.28241986  0.68443011  0.54668792    -0.11400
C3581       C  0.27652472  0.67246221  0.55306657    -0.01400
C3582       C  0.26336857  0.67080612  0.54816198    -0.06600
H3583       H  0.25571436  0.70104173  0.51794844     0.05900
H3584       H  0.28210369  0.66433123  0.56337935     0.09300
Br3585     Br  0.23991674  0.69776145  0.60518717    -0.06300
Br3586     Br  0.21641857  0.65960432  0.45110303    -0.03200
Br3587     Br  0.28117540  0.71166170  0.52251965    -0.00400
Br3588     Br  0.25627182  0.65435843  0.56147140    -0.04700
C3589       C  0.17109724  0.67050432  0.64972834    -0.12100
C3590       C  0.18174288  0.66494020  0.67107842     0.03300
C3591       C  0.18313753  0.66597497  0.71675769    -0.12700
C3592       C  0.17409087  0.67241217  0.74176586     0.18200
C3593       C  0.16318019  0.67728542  0.72102111    -0.09700
C3594       C  0.16172447  0.67623090  0.67580678    -0.02700
H3595       H  0.19149745  0.66206156  0.73269716     0.04700
C3596       C  0.17633747  0.67480824  0.78891224     0.20200
H3597       H  0.15335655  0.68045235  0.66095130     0.09900
C3598       C  0.17875636  0.68732908  0.80241314    -0.16000
C3599       C  0.17875489  0.69059419  0.84675100     0.02900
C3600       C  0.17651369  0.68107179  0.87896263    -0.11400
C3601       C  0.17485617  0.66837486  0.86512519    -0.01400
C3602       C  0.17470037  0.66522176  0.82065062    -0.06600
H3603       H  0.17999130  0.69475682  0.77799483     0.05900
H3604       H  0.17320613  0.66086806  0.88891521     0.09300
Br3605     Br  0.15011787  0.68587391  0.75297854    -0.06300
Br3606     Br  0.19484887  0.65603073  0.64058036    -0.03200
Br3607     Br  0.18075178  0.70842226  0.85932858    -0.00400
Br3608     Br  0.17125594  0.64788974  0.80477643    -0.04700
C3609       C  0.16169263  0.67422959  0.14656100    -0.12100
C3610       C  0.17078832  0.66534559  0.16201281     0.03300
C3611       C  0.17296423  0.66389563  0.20702291    -0.12700
C3612       C  0.16606840  0.67090630  0.23754701     0.18200
C3613       C  0.15657746  0.67931354  0.22240894    -0.09700
C3614       C  0.15447410  0.68091565  0.17736184    -0.02700
H3615       H  0.18019018  0.65731420  0.21835095     0.04700
C3616       C  0.16967372  0.67000221  0.28453030     0.20200
H3617       H  0.14748647  0.68779579  0.16643534     0.09900
C3618       C  0.18125762  0.67539126  0.29819484    -0.16000
C3619       C  0.18491067  0.67527840  0.34233493     0.02900
C3620       C  0.17678620  0.66978698  0.37420339    -0.11400
C3621       C  0.16553499  0.66368595  0.35994802    -0.01400
C3622       C  0.16200061  0.66369973  0.31551916    -0.06600
H3623       H  0.18742861  0.67989959  0.27434457     0.05900
H3624       H  0.15917518  0.65935551  0.38357712     0.09300
Br3625     Br  0.14665247  0.68931570  0.26159619    -0.06300
Br3626     Br  0.18037929  0.65456940  0.12396686    -0.03200
Br3627     Br  0.20121093  0.68270465  0.35632699    -0.00400
Br3628     Br  0.14666180  0.65500501  0.29844163    -0.04700
C3629       C  0.09123878  0.60813225  0.47107485    -0.12100
C3630       C  0.10287750  0.60925892  0.44830607     0.03300
C3631       C  0.11103036  0.61956345  0.45656280    -0.12700
C3632       C  0.10785255  0.62890497  0.48707891     0.18200
C3633       C  0.09615320  0.62800034  0.50908207    -0.09700
C3634       C  0.08793235  0.61769769  0.50087148    -0.02700
H3635       H  0.11995012  0.62028919  0.43910874     0.04700
C3636       C  0.11710699  0.63929289  0.49578811     0.20200
H3637       H  0.07899490  0.61707934  0.51824651     0.09900
C3638       C  0.11881917  0.64899264  0.46447740    -0.16000
C3639       C  0.12853643  0.65811349  0.46938769     0.02900
C3640       C  0.13682557  0.65744593  0.50575686    -0.11400
C3641       C  0.13492232  0.64789326  0.53744810    -0.01400
C3642       C  0.12513339  0.63890562  0.53285511    -0.06600
H3643       H  0.11279353  0.64924923  0.43554787     0.05900
H3644       H  0.14123769  0.64729112  0.56558971     0.09300
Br3645     Br  0.09102329  0.64066189  0.55024388    -0.06300
Br3646     Br  0.10791423  0.59757038  0.40348976    -0.03200
Br3647     Br  0.13084114  0.67053664  0.42379191    -0.00400
Br3648     Br  0.12354861  0.62584441  0.57672857    -0.04700
C3649       C  0.15392081  0.71677234  0.43576830    -0.12100
C3650       C  0.15617134  0.71882822  0.39072859     0.03300
C3651       C  0.15561578  0.73114547  0.37331679    -0.12700
C3652       C  0.15332987  0.74163129  0.40028227     0.18200
C3653       C  0.15019711  0.73954736  0.44448833    -0.09700
C3654       C  0.15031449  0.72717135  0.46168411    -0.02700
H3655       H  0.15777524  0.73265706  0.33902652     0.04700
C3656       C  0.15519725  0.75461870  0.38226807     0.20200
H3657       H  0.14877659  0.72589104  0.49647300     0.09900
C3658       C  0.14476711  0.76275384  0.37788468    -0.16000
C3659       C  0.14615428  0.77485681  0.35910870     0.02900
C3660       C  0.15824895  0.77904626  0.34438358    -0.11400
C3661       C  0.16867363  0.77086459  0.34892344    -0.01400
C3662       C  0.16725732  0.75879275  0.36791658    -0.06600
H3663       H  0.13542997  0.75953412  0.38814649     0.05900
H3664       H  0.17797580  0.77387020  0.33757894     0.09300
Br3665     Br  0.14725582  0.75336350  0.48393056    -0.06300
Br3666     Br  0.16107384  0.70545077  0.35192788    -0.03200
Br3667     Br  0.13084568  0.78450112  0.35089597    -0.00400
Br3668     Br  0.18214639  0.74843270  0.37426978    -0.04700
C3669       C  0.17840223  0.72075504  0.57925615    -0.12100
C3670       C  0.17900211  0.72097526  0.62535396     0.03300
C3671       C  0.17954298  0.73264401  0.64689178    -0.12700
C3672       C  0.17964664  0.74407311  0.62305281     0.18200
C3673       C  0.18027426  0.74383624  0.57714648    -0.09700
C3674       C  0.17957858  0.73220662  0.55555224    -0.02700
H3675       H  0.17941079  0.73282781  0.68236618     0.04700
C3676       C  0.17790242  0.75603504  0.64666827     0.20200
H3677       H  0.17936279  0.73218389  0.52006714     0.09900
C3678       C  0.18756918  0.76045515  0.67452420    -0.16000
C3679       C  0.18570047  0.77118583  0.70042243     0.02900
C3680       C  0.17398703  0.77769148  0.69816120    -0.11400
C3681       C  0.16443067  0.77332621  0.66949540    -0.01400
C3682       C  0.16622447  0.76247362  0.64438767    -0.06600
H3683       H  0.19652051  0.75541060  0.67657000     0.05900
H3684       H  0.15530370  0.77806197  0.66794675     0.09300
Br3685     Br  0.18162353  0.75913896  0.54276115    -0.06300
Br3686     Br  0.17935644  0.70576902  0.66048507    -0.03200
Br3687     Br  0.19958862  0.77646436  0.73726413    -0.00400
Br3688     Br  0.15208743  0.75623827  0.61030254    -0.04700
C3689       C  0.20987505  0.31401638  0.78178402    -0.12100
C3690       C  0.21707774  0.32499306  0.79374429     0.03300
C3691       C  0.23025199  0.32517914  0.78842051    -0.12700
C3692       C  0.23666397  0.31464257  0.77202477     0.18200
C3693       C  0.22972682  0.30349718  0.76199893    -0.09700
C3694       C  0.21644196  0.30327195  0.76666685    -0.02700
H3695       H  0.23559717  0.33367002  0.79720243     0.04700
C3696       C  0.25055266  0.31574100  0.76498830     0.20200
H3697       H  0.21123772  0.29468688  0.75810193     0.09900
C3698       C  0.25900094  0.30897625  0.79210627    -0.16000
C3699       C  0.27218100  0.31009796  0.78644952     0.02900
C3700       C  0.27705041  0.31817277  0.75348864    -0.11400
C3701       C  0.26861865  0.32526824  0.72748365    -0.01400
C3702       C  0.25546758  0.32405887  0.73281752    -0.06600
H3703       H  0.25532596  0.30283295  0.81772044     0.05900
H3704       H  0.27225728  0.33135788  0.70163473     0.09300
Br3705     Br  0.23796634  0.28851352  0.74086473    -0.06300
Br3706     Br  0.21004997  0.34003611  0.81971474    -0.03200
Br3707     Br  0.28318306  0.30084510  0.82549670    -0.00400
Br3708     Br  0.24458850  0.33345155  0.69377050    -0.04700
C3709       C  0.14223659  0.22114500  0.95593017    -0.12100
C3710       C  0.13285563  0.22901022  0.97509042     0.03300
C3711       C  0.13082121  0.24139960  0.95885196    -0.12700
C3712       C  0.13792617  0.24620208  0.92373605     0.18200
C3713       C  0.14677271  0.23824105  0.90328784    -0.09700
C3714       C  0.14865819  0.22584184  0.91873193    -0.02700
H3715       H  0.12402106  0.24750171  0.97482602     0.04700
C3716       C  0.13720125  0.25984379  0.91119133     0.20200
H3717       H  0.15594661  0.22020430  0.90330087     0.09900
C3718       C  0.14408378  0.26878244  0.93591684    -0.16000
C3719       C  0.14686958  0.28086916  0.91871108     0.02900
C3720       C  0.14303715  0.28402764  0.87554150    -0.11400
C3721       C  0.13462333  0.27570365  0.85364806    -0.01400
C3722       C  0.13169224  0.26369521  0.87119229    -0.06600
H3723       H  0.14800899  0.26606841  0.96748814     0.05900
H3724       H  0.13122324  0.27800252  0.82104638     0.09300
Br3725     Br  0.15764942  0.24441487  0.85738383    -0.06300
Br3726     Br  0.12302830  0.22402851  0.02516306    -0.03200
Br3727     Br  0.15617195  0.29246604  0.95527575    -0.00400
Br3728     Br  0.12110036  0.25239148  0.83771130    -0.04700
C3729       C  0.15298863  0.21485698  0.61780745    -0.12100
C3730       C  0.14963492  0.22640428  0.59718303     0.03300
C3731       C  0.14988592  0.23774380  0.62101830    -0.12700
C3732       C  0.15324912  0.23770606  0.66553746     0.18200
C3733       C  0.15478714  0.22597091  0.68740452    -0.09700
C3734       C  0.15488744  0.21466286  0.66333091    -0.02700
H3735       H  0.14827133  0.24669648  0.60413547     0.04700
C3736       C  0.15583154  0.24999539  0.68757454     0.20200
H3737       H  0.15751935  0.20585490  0.67959231     0.09900
C3738       C  0.14582435  0.25850132  0.69329159    -0.16000
C3739       C  0.14790306  0.27036792  0.71259390     0.02900
C3740       C  0.16031001  0.27400790  0.72645802    -0.11400
C3741       C  0.17035049  0.26545118  0.72075575    -0.01400
C3742       C  0.16823871  0.25360385  0.70088760    -0.06600
H3743       H  0.13628449  0.25582373  0.68300420     0.05900
H3744       H  0.17989826  0.26807795  0.73106679     0.09300
Br3745     Br  0.15742532  0.22504021  0.74953090    -0.06300
Br3746     Br  0.14646729  0.22743989  0.53533072    -0.03200
Br3747     Br  0.13307419  0.28061159  0.72145391    -0.00400
Br3748     Br  0.18269032  0.24297402  0.69055973    -0.04700
C3749       C  0.22030800  0.32629794  0.29094587    -0.12100
C3750       C  0.22838581  0.31808561  0.31491254     0.03300
C3751       C  0.24144871  0.31782958  0.30590630    -0.12700
C3752       C  0.24667306  0.32560684  0.27304672     0.18200
C3753       C  0.23870375  0.33408774  0.25005918    -0.09700
C3754       C  0.22567959  0.33447914  0.25943027    -0.02700
H3755       H  0.24753169  0.31136140  0.32406468     0.04700
C3756       C  0.26034543  0.32437079  0.26224589     0.20200
H3757       H  0.21959430  0.34062765  0.23996980     0.09900
C3758       C  0.26442575  0.31375549  0.23853229    -0.16000
C3759       C  0.27735003  0.31197918  0.22923782     0.02900
C3760       C  0.28651166  0.32086303  0.24449316    -0.11400
C3761       C  0.28227739  0.33169653  0.26704438    -0.01400
C3762       C  0.26937070  0.33347948  0.27596260    -0.06600
H3763       H  0.25749716  0.30681058  0.22718227     0.05900
H3764       H  0.28907434  0.33864828  0.27921643     0.09300
Br3765     Br  0.24501162  0.34455625  0.20324184    -0.06300
Br3766     Br  0.22207583  0.30707307  0.36030824    -0.03200
Br3767     Br  0.28172109  0.29754107  0.19417117    -0.00400
Br3768     Br  0.26457130  0.34822431  0.30864392    -0.04700
C3769       C  0.17279619  0.33444507  0.42397945    -0.12100
C3770       C  0.16148583  0.33804883  0.44513549     0.03300
C3771       C  0.16081436  0.33772518  0.49082997    -0.12700
C3772       C  0.17118890  0.33363632  0.51625032     0.18200
C3773       C  0.18258474  0.33026375  0.49521511    -0.09700
C3774       C  0.18338866  0.33093006  0.44943411    -0.02700
H3775       H  0.15198466  0.34024384  0.50660766     0.04700
C3776       C  0.16937703  0.33172381  0.56396260     0.20200
H3777       H  0.19198005  0.32773715  0.43356576     0.09900
C3778       C  0.16100413  0.32212159  0.57798404    -0.16000
C3779       C  0.15891385  0.31983581  0.62254166     0.02900
C3780       C  0.16528903  0.32731631  0.65443593    -0.11400
C3781       C  0.17357732  0.33705596  0.64012542    -0.01400
C3782       C  0.17556550  0.33935564  0.59542260    -0.06600
H3783       H  0.15618340  0.31621644  0.55394299     0.05900
H3784       H  0.17849234  0.34298859  0.66383651     0.09300
Br3785     Br  0.19673731  0.32326977  0.52703464    -0.06300
Br3786     Br  0.14653041  0.34315824  0.41313019    -0.03200
Br3787     Br  0.14785375  0.30580419  0.63665965    -0.00400
Br3788     Br  0.18647845  0.35325219  0.57883546    -0.04700
C3789       C  0.17973977  0.32660131  0.92424952    -0.12100
C3790       C  0.18086026  0.33935354  0.93863007     0.03300
C3791       C  0.18265689  0.34190371  0.98336698    -0.12700
C3792       C  0.18330266  0.33195157  0.01413056     0.18200
C3793       C  0.18192809  0.31929996  0.99980933    -0.09700
C3794       C  0.18049777  0.31675121  0.95539256    -0.02700
H3795       H  0.18367535  0.35167123  0.99416976     0.04700
C3796       C  0.18528192  0.33471310  0.06113625     0.20200
H3797       H  0.17971595  0.30691513  0.94529563     0.09900
C3798       C  0.17549997  0.34039111  0.08500920    -0.16000
C3799       C  0.17594356  0.34066868  0.13089746     0.02900
C3800       C  0.18630079  0.33503587  0.15340622    -0.11400
C3801       C  0.19662663  0.33052168  0.12902572    -0.01400
C3802       C  0.19623248  0.33042426  0.08334954    -0.06600
H3803       H  0.16713290  0.34390984  0.06803298     0.05900
H3804       H  0.20480850  0.32645050  0.14560468     0.09300
Br3805     Br  0.18134490  0.30508459  0.03958953    -0.06300
Br3806     Br  0.18074823  0.35363086  0.89914137    -0.03200
Br3807     Br  0.16151031  0.34763535  0.16038176    -0.00400
Br3808     Br  0.21056048  0.32363612  0.05271940    -0.04700
C3809       C  0.18079037  0.22305207  0.47250914    -0.12100
C3810       C  0.17330560  0.22593722  0.43505639     0.03300
C3811       C  0.17474606  0.23765310  0.41395868    -0.12700
C3812       C  0.18366876  0.24664998  0.42864242     0.18200
C3813       C  0.19136734  0.24374089  0.46527862    -0.09700
C3814       C  0.18992713  0.23198897  0.48676542    -0.02700
H3815       H  0.16874949  0.23982273  0.38589965     0.04700
C3816       C  0.18428396  0.25911670  0.40583779     0.20200
H3817       H  0.19571158  0.22999757  0.51547167     0.09900
C3818       C  0.18086851  0.27018322  0.42832772    -0.16000
C3819       C  0.17981291  0.28188848  0.40647214     0.02900
C3820       C  0.18200694  0.28259917  0.36087339    -0.11400
C3821       C  0.18586159  0.27155624  0.33886645    -0.01400
C3822       C  0.18700383  0.25992515  0.36083374    -0.06600
H3823       H  0.17871140  0.26965014  0.46292701     0.05900
H3824       H  0.18762757  0.27183614  0.30396583     0.09300
Br3825     Br  0.20399231  0.25544956  0.48688953    -0.06300
Br3826     Br  0.16110166  0.21436405  0.40965133    -0.03200
Br3827     Br  0.17558884  0.29644196  0.44123309    -0.00400
Br3828     Br  0.19222922  0.24539228  0.32770446    -0.04700
C3829       C  0.16008318  0.28639462  0.21132562    -0.12100
C3830       C  0.15937805  0.28578640  0.16536611     0.03300
C3831       C  0.15906209  0.27392501  0.14458709    -0.12700
C3832       C  0.15951497  0.26260017  0.16917152     0.18200
C3833       C  0.15968461  0.26321585  0.21521279    -0.09700
C3834       C  0.15982125  0.27505546  0.23587965    -0.02700
H3835       H  0.15878254  0.27352549  0.10914681     0.04700
C3836       C  0.16039732  0.25027858  0.14627353     0.20200
H3837       H  0.16073299  0.27538194  0.27123857     0.09900
C3838       C  0.17191298  0.24687342  0.12661863    -0.16000
C3839       C  0.17307979  0.23528152  0.10447593     0.02900
C3840       C  0.16257977  0.22685710  0.10204631    -0.11400
C3841       C  0.15111325  0.23029700  0.12220661    -0.01400
C3842       C  0.14993263  0.24191357  0.14380378    -0.06600
H3843       H  0.18003701  0.25325843  0.12866115     0.05900
H3844       H  0.14285788  0.22408574  0.11999161     0.09300
Br3845     Br  0.16094584  0.24821621  0.25114472    -0.06300
Br3846     Br  0.15890234  0.30093205  0.13011327    -0.03200
Br3847     Br  0.18932831  0.23128990  0.07996849    -0.00400
Br3848     Br  0.13369348  0.24620714  0.16775254    -0.04700
C3849       C  0.06204667  0.46679377  0.86844111    -0.12100
C3850       C  0.05355469  0.47248792  0.89799641     0.03300
C3851       C  0.05476850  0.48544721  0.90750905    -0.12700
C3852       C  0.06432804  0.49289342  0.88817852     0.18200
C3853       C  0.07285553  0.48727501  0.85896708    -0.09700
C3854       C  0.07168275  0.47431747  0.84935820    -0.02700
H3855       H  0.04828463  0.48974418  0.93049642     0.04700
C3856       C  0.06527611  0.50644663  0.89999011     0.20200
H3857       H  0.07825715  0.47014108  0.82643129     0.09900
C3858       C  0.07311948  0.51002693  0.93515703    -0.16000
C3859       C  0.07302510  0.52250890  0.95089330     0.02900
C3860       C  0.06479257  0.53156056  0.93162110    -0.11400
C3861       C  0.05721217  0.52800508  0.89559990    -0.01400
C3862       C  0.05752132  0.51558191  0.87943425    -0.06600
H3863       H  0.07906130  0.50298399  0.95118922     0.05900
H3864       H  0.05106684  0.53493174  0.87987260     0.09300
Br3865     Br  0.08609599  0.49696528  0.83121800    -0.06300
Br3866     Br  0.04064051  0.46303716  0.92854770    -0.03200
Br3867     Br  0.08358071  0.52629320  0.00083389    -0.00400
Br3868     Br  0.04722763  0.51142303  0.82933250    -0.04700
C3869       C  0.13561562  0.34419699  0.80119902    -0.12100
C3870       C  0.13518991  0.35497150  0.77330053     0.03300
C3871       C  0.12574225  0.36412330  0.77880437    -0.12700
C3872       C  0.11665844  0.36284170  0.81191486     0.18200
C3873       C  0.11696438  0.35204544  0.83947940    -0.09700
C3874       C  0.12634342  0.34278813  0.83378191    -0.02700
H3875       H  0.12545525  0.37230524  0.75705360     0.04700
C3876       C  0.10704166  0.37294646  0.81730302     0.20200
H3877       H  0.12653115  0.33457368  0.85538714     0.09900
C3878       C  0.09423247  0.37038709  0.80738984    -0.16000
C3879       C  0.08489047  0.37973163  0.81241147     0.02900
C3880       C  0.08835735  0.39199190  0.82800330    -0.11400
C3881       C  0.10131022  0.39451547  0.83679094    -0.01400
C3882       C  0.11057093  0.38518449  0.83152191    -0.06600
H3883       H  0.09149653  0.36103807  0.79561673     0.05900
H3884       H  0.10432054  0.40377443  0.84858371     0.09300
Br3885     Br  0.10510187  0.34982037  0.88639477    -0.06300
Br3886     Br  0.14669816  0.35739254  0.72529803    -0.03200
Br3887     Br  0.06779203  0.37491164  0.79656884    -0.00400
Br3888     Br  0.12788211  0.38950979  0.84583123    -0.04700
C3889       C  0.06538462  0.46620088  0.37391575    -0.12100
C3890       C  0.05788735  0.47092232  0.40832247     0.03300
C3891       C  0.05814732  0.48395223  0.41810695    -0.12700
C3892       C  0.06580263  0.49243040  0.39414009     0.18200
C3893       C  0.07342896  0.48771609  0.36031095    -0.09700
C3894       C  0.07321901  0.47469840  0.35055354    -0.02700
H3895       H  0.05242431  0.48748396  0.44474043     0.04700
C3896       C  0.06600599  0.50609783  0.40579281     0.20200
H3897       H  0.07901381  0.47124211  0.32398380     0.09900
C3898       C  0.07468660  0.51041942  0.43753405    -0.16000
C3899       C  0.07498029  0.52322535  0.45021979     0.02900
C3900       C  0.06631748  0.53195395  0.43131100    -0.11400
C3901       C  0.05769280  0.52756917  0.39922229    -0.01400
C3902       C  0.05757246  0.51480466  0.38614102    -0.06600
H3903       H  0.08120312  0.50375108  0.45278743     0.05900
H3904       H  0.05105074  0.53412208  0.38402925     0.09300
Br3905     Br  0.08416381  0.49878387  0.32648594    -0.06300
Br3906     Br  0.04779880  0.45991121  0.44477798    -0.03200
Br3907     Br  0.08689316  0.52791488  0.49540130    -0.00400
Br3908     Br  0.04580667  0.50966770  0.34117696    -0.04700
C3909       C  0.07179618  0.43351938  0.71132646    -0.12100
C3910       C  0.06744927  0.44254479  0.68025851     0.03300
C3911       C  0.06884879  0.44017474  0.63535497    -0.12700
C3912       C  0.07443248  0.42887201  0.62069920     0.18200
C3913       C  0.07919661  0.42012095  0.65160542    -0.09700
C3914       C  0.07788817  0.42249207  0.69630144    -0.02700
H3915       H  0.06535625  0.44706906  0.61172496     0.04700
C3916       C  0.07504356  0.42624353  0.57314939     0.20200
H3917       H  0.08126138  0.41539198  0.71942217     0.09900
C3918       C  0.08372150  0.43299915  0.54716201    -0.16000
C3919       C  0.08444423  0.43084663  0.50199110     0.02900
C3920       C  0.07635665  0.42166924  0.48196115    -0.11400
C3921       C  0.06782234  0.41478995  0.50849576    -0.01400
C3922       C  0.06703331  0.41709374  0.55346691    -0.06600
H3923       H  0.08994391  0.44002780  0.56213521     0.05900
H3924       H  0.06129743  0.40795914  0.49395772     0.09300
Br3925     Br  0.08742053  0.40469401  0.63431128    -0.06300
Br3926     Br  0.05987928  0.45836558  0.69693659    -0.03200
Br3927     Br  0.09680720  0.44073699  0.47029728    -0.00400
Br3928     Br  0.05435667  0.40801978  0.58627665    -0.04700
C3929       C  0.07229839  0.42297883  0.98201049    -0.12100
C3930       C  0.06710573  0.41445630  0.01346661     0.03300
C3931       C  0.06780280  0.41742547  0.05805862    -0.12700
C3932       C  0.07359870  0.42870507  0.07241766     0.18200
C3933       C  0.07905214  0.43704161  0.04172290    -0.09700
C3934       C  0.07836275  0.43417658  0.99713039    -0.02700
H3935       H  0.06370511  0.41091672  0.08182594     0.04700
C3936       C  0.07409423  0.43138070  0.11977712     0.20200
H3937       H  0.08248705  0.44090263  0.97418842     0.09900
C3938       C  0.08307281  0.42505439  0.14579759    -0.16000
C3939       C  0.08319164  0.42638310  0.19135140     0.02900
C3940       C  0.07414398  0.43434861  0.21178746    -0.11400
C3941       C  0.06543610  0.44101926  0.18498873    -0.01400
C3942       C  0.06528424  0.43950013  0.13953868    -0.06600
H3943       H  0.08981924  0.41872841  0.13055659     0.05900
H3944       H  0.05831362  0.44706670  0.19945745     0.09300
Br3945     Br  0.08755755  0.45242258  0.05935198    -0.06300
Br3946     Br  0.05876688  0.39868787  0.99920971    -0.03200
Br3947     Br  0.09551548  0.41626775  0.22249158    -0.00400
Br3948     Br  0.05234388  0.44802719  0.10604125    -0.04700
C3949       C  0.14122750  0.34578134  0.28037023    -0.12100
C3950       C  0.12887186  0.34159396  0.29242281     0.03300
C3951       C  0.11894963  0.35043939  0.29695067    -0.12700
C3952       C  0.12090896  0.36350414  0.28904590     0.18200
C3953       C  0.13298001  0.36753605  0.27426169    -0.09700
C3954       C  0.14293765  0.35878101  0.27032715    -0.02700
H3955       H  0.10976950  0.34715488  0.30849267     0.04700
C3956       C  0.11082119  0.37293256  0.30060695     0.20200
H3957       H  0.15220570  0.36225870  0.26033683     0.09900
C3958       C  0.11342657  0.38183101  0.33366951    -0.16000
C3959       C  0.10451414  0.39105533  0.34553590     0.02900
C3960       C  0.09247747  0.39158017  0.32435940    -0.11400
C3961       C  0.08968712  0.38238334  0.29219054    -0.01400
C3962       C  0.09871168  0.37316646  0.28020658    -0.06600
H3963       H  0.12252540  0.38157883  0.35057618     0.05900
H3964       H  0.08055489  0.38254046  0.27551561     0.09300
Br3965     Br  0.13640216  0.38499066  0.25925171    -0.06300
Br3966     Br  0.12500441  0.32418709  0.30687394    -0.03200
Br3967     Br  0.10929497  0.40216475  0.39278277    -0.00400
Br3968     Br  0.09427067  0.36148782  0.23443611    -0.04700
C3969       C  0.51605814  0.58410354  0.89559292    -0.12100
C3970       C  0.50599584  0.57524084  0.89957865     0.03300
C3971       C  0.49415159  0.57916577  0.91562200    -0.12700
C3972       C  0.49191917  0.59196987  0.92653282     0.18200
C3973       C  0.50177893  0.60092484  0.92034800    -0.09700
C3974       C  0.51367084  0.59694808  0.90554334    -0.02700
H3975       H  0.48674533  0.57210367  0.92074666     0.04700
C3976       C  0.47988129  0.59544849  0.94898341     0.20200
H3977       H  0.52109323  0.60404397  0.90114178     0.09900
C3978       C  0.48060367  0.60051671  0.99143148    -0.16000
C3979       C  0.46974297  0.60169528  0.01731455     0.02900
C3980       C  0.45786935  0.59733371  0.00145309    -0.11400
C3981       C  0.45693968  0.59345938  0.95744684    -0.01400
C3982       C  0.46778289  0.59257673  0.93116742    -0.06600
H3983       H  0.48980406  0.60281477  0.00568369     0.05900
H3984       H  0.44788655  0.59010689  0.94455342     0.09300
Br3985     Br  0.49940451  0.61878035  0.93050079    -0.06300
Br3986     Br  0.50802913  0.55761333  0.88627162    -0.03200
Br3987     Br  0.47215476  0.60760603  0.07606042    -0.00400
Br3988     Br  0.46562668  0.58684139  0.87197788    -0.04700
C3989       C  0.47066851  0.57660167  0.65176119    -0.12100
C3990       C  0.47305195  0.57606760  0.69713468     0.03300
C3991       C  0.48446416  0.58100510  0.71413141    -0.12700
C3992       C  0.49324195  0.58740615  0.68702425     0.18200
C3993       C  0.49081281  0.58779014  0.64137973    -0.09700
C3994       C  0.47982731  0.58206777  0.62424084    -0.02700
H3995       H  0.48635634  0.58003871  0.74888542     0.04700
C3996       C  0.50524969  0.59264332  0.70645130     0.20200
H3997       H  0.47789667  0.58290772  0.58943974     0.09900
C3998       C  0.51685330  0.58941895  0.68719541    -0.16000
C3999       C  0.52839289  0.59251564  0.70711562     0.02900
C4000       C  0.52860459  0.59746623  0.74989056    -0.11400
C4001       C  0.51718859  0.60196807  0.76745597    -0.01400
C4002       C  0.50555068  0.59981615  0.74568200    -0.06600
H4003       H  0.51704078  0.58380744  0.65760640     0.05900
H4004       H  0.51711931  0.60596333  0.80009423     0.09300
Br4005     Br  0.50131853  0.59709562  0.60087621    -0.06300
Br4006     Br  0.46084805  0.56901703  0.73714899    -0.03200
Br4007     Br  0.54364770  0.58806839  0.67707690    -0.00400
Br4008     Br  0.49046159  0.60637153  0.77229493    -0.04700
C4009       C  0.46122738  0.59311964  0.50356841    -0.12100
C4010       C  0.47152935  0.60078744  0.51762897     0.03300
C4011       C  0.48333357  0.59958166  0.49722573    -0.12700
C4012       C  0.48493840  0.59116675  0.46210006     0.18200
C4013       C  0.47420175  0.58499971  0.44416307     0.22300
C4014       C  0.46245283  0.58624912  0.46431230    -0.02700
H4015       H  0.49144638  0.60475492  0.51028836     0.04700
C4016       C  0.49790044  0.58831354  0.44666157     0.20200
H4017       H  0.45453062  0.58071716  0.45148759     0.09900
C4018       C  0.50223232  0.57563749  0.44747493    -0.16000
C4019       C  0.51430304  0.57256437  0.43178655     0.02900
C4020       C  0.52242483  0.58234475  0.41741766    -0.11400
C4021       C  0.51837156  0.59503622  0.41888774    -0.01400
C4022       C  0.50611637  0.59805180  0.43214065    -0.06600
H4023       H  0.49611120  0.56809099  0.45963329     0.05900
H4024       H  0.52451390  0.60260333  0.40691339     0.09300
Br4025     Br  0.47508151  0.57396045  0.39433272    -0.06300
Br4026     Br  0.47039785  0.61249231  0.56551912    -0.03200
Br4027     Br  0.51943428  0.55507352  0.43126277    -0.00400
Br4028     Br  0.50077388  0.61542077  0.42579558    -0.04700
C4029       C  0.46732414  0.58479883  0.16439071    -0.12100
C4030       C  0.47730027  0.57586183  0.16685035     0.03300
C4031       C  0.48888096  0.57918964  0.18733573    -0.12700
C4032       C  0.49079771  0.59133848  0.20554956     0.18200
C4033       C  0.48086673  0.60022758  0.20310732    -0.09700
C4034       C  0.46928506  0.59687746  0.18333017    -0.02700
H4035       H  0.49641412  0.57221068  0.18943612     0.04700
C4036       C  0.50308326  0.59437647  0.22789381     0.20200
H4037       H  0.46192657  0.60403542  0.18118226     0.09900
C4038       C  0.51431733  0.59536331  0.20336158    -0.16000
C4039       C  0.52623202  0.59650929  0.22423936     0.02900
C4040       C  0.52706602  0.59656686  0.27029780    -0.11400
C4041       C  0.51576270  0.59668052  0.29446327    -0.01400
C4042       C  0.50387330  0.59549284  0.27381864    -0.06600
H4043       H  0.51384988  0.59482556  0.16796658     0.05900
H4044       H  0.51620252  0.59644220  0.32982931     0.09300
Br4045     Br  0.48285342  0.61731014  0.22424317    -0.06300
Br4046     Br  0.47552580  0.55884743  0.14487102    -0.03200
Br4047     Br  0.54120901  0.59777652  0.18905047    -0.00400
Br4048     Br  0.48915467  0.59398449  0.31024417    -0.04700
C4049       C  0.57542744  0.58023054  0.48222287    -0.12100
C4050       C  0.58050545  0.56891295  0.50094029     0.03300
C4051       C  0.58018070  0.56703749  0.54626087    -0.12700
C4052       C  0.57516737  0.57626052  0.57394402     0.18200
C4053       C  0.57100750  0.58789891  0.55604266    -0.09700
C4054       C  0.57105845  0.58975716  0.51062351    -0.02700
H4055       H  0.58369961  0.55819568  0.56007780     0.04700
C4056       C  0.57407542  0.57335625  0.62118571     0.20200
H4057       H  0.56728605  0.59857343  0.49752993     0.09900
C4058       C  0.58235690  0.57926500  0.65094510    -0.16000
C4059       C  0.58121680  0.57717625  0.69605314     0.02900
C4060       C  0.57151082  0.56895896  0.71220784    -0.11400
C4061       C  0.56374652  0.56246521  0.68173370    -0.01400
C4062       C  0.56489968  0.56466753  0.63673506    -0.06600
H4063       H  0.58961203  0.58575695  0.63896570     0.05900
H4064       H  0.55626342  0.55612260  0.69288507     0.09300
Br4065     Br  0.56469251  0.60133646  0.59202110    -0.06300
Br4066     Br  0.58794649  0.55535427  0.46786821    -0.03200
Br4067     Br  0.59304798  0.58637808  0.73258129    -0.00400
Br4068     Br  0.55300349  0.55641277  0.59801767    -0.04700
C4069       C  0.56848287  0.57858511  0.98199994    -0.12100
C4070       C  0.56773973  0.56635301  0.00161794     0.03300
C4071       C  0.56922948  0.56503506  0.04674844    -0.12700
C4072       C  0.57111507  0.57567604  0.07335676     0.18200
C4073       C  0.57196552  0.58786381  0.05419312    -0.09700
C4074       C  0.57063166  0.58924754  0.00875317    -0.02700
H4075       H  0.56835867  0.55566383  0.06153988     0.04700
C4076       C  0.57082218  0.57381369  0.12116277     0.20200
H4077       H  0.57120067  0.59868288  0.99435191     0.09900
C4078       C  0.58202576  0.57493809  0.14608774    -0.16000
C4079       C  0.58190703  0.57281438  0.19143192     0.02900
C4080       C  0.57036869  0.56944270  0.21227464    -0.11400
C4081       C  0.55928682  0.56801867  0.18663950    -0.01400
C4082       C  0.55942046  0.57023601  0.14170647    -0.06600
H4083       H  0.59088420  0.57743264  0.13015096     0.05900
H4084       H  0.55027138  0.56566140  0.20175815     0.09300
Br4085     Br  0.57432514  0.60286074  0.08896849    -0.06300
Br4086     Br  0.56344523  0.55108769  0.97010166    -0.03200
Br4087     Br  0.59784736  0.57430136  0.22224096    -0.00400
Br4088     Br  0.54359699  0.56883788  0.11008452    -0.04700
C4089       C  0.63972497  0.65395843  0.82091363    -0.12100
C4090       C  0.64152600  0.64059791  0.82379127     0.03300
C4091       C  0.63096144  0.63234246  0.82574228    -0.12700
C4092       C  0.61846218  0.63699465  0.82546161     0.18200
C4093       C  0.61663633  0.65026546  0.82457547    -0.09700
C4094       C  0.62713507  0.65854507  0.82184583    -0.02700
H4095       H  0.63251504  0.62216270  0.82780359     0.04700
C4096       C  0.60759086  0.62785029  0.82938948     0.20200
H4097       H  0.62536488  0.66868996  0.82038603     0.09900
C4098       C  0.60652495  0.62052334  0.86772471    -0.16000
C4099       C  0.59668760  0.61158722  0.87280068     0.02900
C4100       C  0.58753047  0.60985165  0.83922940    -0.11400
C4101       C  0.58846808  0.61726600  0.80098873    -0.01400
C4102       C  0.59849872  0.62605982  0.79557217    -0.06600
H4103       H  0.61341348  0.62177341  0.89396104     0.05900
H4104       H  0.58166632  0.61586521  0.77458568     0.09300
Br4105     Br  0.60002999  0.65760608  0.82946837    -0.06300
Br4106     Br  0.65799262  0.63279042  0.82702322    -0.03200
Br4107     Br  0.59597071  0.60234628  0.92716440    -0.00400
Br4108     Br  0.59986120  0.63471305  0.74032149    -0.04700
C4109       C  0.65236786  0.71376614  0.89242204    -0.12100
C4110       C  0.64744046  0.72509705  0.87403621     0.03300
C4111       C  0.64834557  0.73654022  0.89743524    -0.12700
C4112       C  0.65358465  0.73686160  0.93992020     0.18200
C4113       C  0.65646789  0.72521319  0.96075916    -0.09700
C4114       C  0.65612035  0.71388375  0.93677943    -0.02700
H4115       H  0.64536452  0.74530968  0.88173934     0.04700
C4116       C  0.65575514  0.74938088  0.96174926     0.20200
H4117       H  0.65952091  0.70522040  0.95218950     0.09900
C4118       C  0.64549953  0.75771078  0.96602427    -0.16000
C4119       C  0.64701606  0.76961383  0.98581212     0.02900
C4120       C  0.65905138  0.77342376  0.00280287    -0.11400
C4121       C  0.66938393  0.76515020  0.99802555    -0.01400
C4122       C  0.66791265  0.75339960  0.97667553    -0.06600
H4123       H  0.63616127  0.75487231  0.95415999     0.05900
H4124       H  0.67871052  0.76796657  0.01003019     0.09300
Br4125     Br  0.66085348  0.72420896  0.02180191    -0.06300
Br4126     Br  0.64011202  0.72585032  0.81647738    -0.03200
Br4127     Br  0.63189709  0.77969821  0.99037219    -0.00400
Br4128     Br  0.68299207  0.74372232  0.96576986    -0.04700
C4129       C  0.65465128  0.78478420  0.65156192    -0.12100
C4130       C  0.65385756  0.78327138  0.69731677     0.03300
C4131       C  0.65502569  0.77110784  0.71611349    -0.12700
C4132       C  0.65746537  0.76044744  0.68984809     0.18200
C4133       C  0.65753223  0.76192919  0.64394963    -0.09700
C4134       C  0.65582869  0.77395280  0.62526422    -0.02700
H4135       H  0.65464079  0.77005344  0.75137674     0.04700
C4136       C  0.66031503  0.74790421  0.71016583     0.20200
H4137       H  0.65685843  0.77499741  0.59013370     0.09900
C4138       C  0.65245217  0.73749923  0.70016922    -0.16000
C4139       C  0.65533853  0.72523880  0.71496149     0.02900
C4140       C  0.66628096  0.72317648  0.74160648    -0.11400
C4141       C  0.67400113  0.73372082  0.75238461    -0.01400
C4142       C  0.67115250  0.74596319  0.73681836    -0.06600
H4143       H  0.64401367  0.73893330  0.68016596     0.05900
H4144       H  0.68231039  0.73246162  0.77313167     0.09300
Br4145     Br  0.66170768  0.74821964  0.60537792    -0.06300
Br4146     Br  0.65182288  0.79764806  0.73509838    -0.03200
Br4147     Br  0.64323350  0.71220306  0.69908902    -0.00400
Br4148     Br  0.68261056  0.75959355  0.75181541    -0.04700
C4149       C  0.67216819  0.67134964  0.44104198    -0.12100
C4150       C  0.67391956  0.65907794  0.45878907     0.03300
C4151       C  0.67426441  0.65744936  0.50443002    -0.12700
C4152       C  0.67289643  0.66796471  0.53219919     0.18200
C4153       C  0.67187932  0.68026327  0.51418322    -0.09700
C4154       C  0.67144012  0.68184773  0.46900298    -0.02700
H4155       H  0.67510936  0.64796894  0.51823404     0.04700
C4156       C  0.67176506  0.66618214  0.57983172     0.20200
H4157       H  0.67023275  0.69134347  0.45556978     0.09900
C4158       C  0.68279215  0.66523782  0.60539013    -0.16000
C4159       C  0.68223998  0.66623278  0.65097787     0.02900
C4160       C  0.67035587  0.66830238  0.67170637    -0.11400
C4161       C  0.65925711  0.66843022  0.64573927    -0.01400
C4162       C  0.65989320  0.66733518  0.60026714    -0.06600
H4163       H  0.69194932  0.66439206  0.58961152     0.05900
H4164       H  0.65004016  0.66975826  0.66066089     0.09300
Br4165     Br  0.67058948  0.69517286  0.55002451    -0.06300
Br4166     Br  0.67468500  0.64429732  0.42232911    -0.03200
Br4167     Br  0.69833350  0.66568054  0.68117932    -0.00400
Br4168     Br  0.64438283  0.66818040  0.56685501    -0.04700
C4169       C  0.67813458  0.67468619  0.16990384    -0.12100
C4170       C  0.66858423  0.67854277  0.14043451     0.03300
C4171       C  0.67019498  0.67661619  0.09564108    -0.12700
C4172       C  0.68127415  0.67087337  0.07974919     0.18200
C4173       C  0.69083331  0.66701315  0.10956620    -0.09700
C4174       C  0.68917797  0.66892831  0.15438438    -0.02700
H4175       H  0.66294443  0.67993603  0.07300241     0.04700
C4176       C  0.68301366  0.67001133  0.03189469     0.20200
H4177       H  0.69665604  0.66620761  0.17712250     0.09900
C4178       C  0.69302438  0.67681970  0.01243911    -0.16000
C4179       C  0.69413050  0.67754353  0.96697136     0.02900
C4180       C  0.68483348  0.67168712  0.94001224    -0.11400
C4181       C  0.67522033  0.66428153  0.95959079    -0.01400
C4182       C  0.67425887  0.66340623  0.00510842    -0.06600
H4183       H  0.69983853  0.68189790  0.03275207     0.05900
H4184       H  0.66803418  0.65964527  0.93953544     0.09300
Br4185     Br  0.70634538  0.65923573  0.09095762    -0.06300
Br4186     Br  0.65355260  0.68705239  0.15991717    -0.03200
Br4187     Br  0.70863854  0.68654447  0.94412754    -0.00400
Br4188     Br  0.66067412  0.65329694  0.02906617    -0.04700
C4189       C  0.63595091  0.66017941  0.30202991    -0.12100
C4190       C  0.63692247  0.64810460  0.28208242     0.03300
C4191       C  0.62695911  0.63927184  0.28574817    -0.12700
C4192       C  0.61585077  0.64224072  0.30850758     0.18200
C4193       C  0.61456822  0.65447523  0.32658355    -0.09700
C4194       C  0.62454198  0.66335243  0.32301541    -0.02700
H4195       H  0.62796902  0.62991736  0.27139250     0.04700
C4196       C  0.60628557  0.63204844  0.31602836     0.20200
H4197       H  0.62362621  0.67252187  0.33875913     0.09900
C4198       C  0.60922283  0.62231657  0.34585217    -0.16000
C4199       C  0.60073352  0.61225145  0.35340070     0.02900
C4200       C  0.58892290  0.61178008  0.33071547    -0.11400
C4201       C  0.58596504  0.62162438  0.30101760    -0.01400
C4202       C  0.59460234  0.63162150  0.29321852    -0.06600
H4203       H  0.61820361  0.62258496  0.36351950     0.05900
H4204       H  0.57703091  0.62139891  0.28308405     0.09300
Br4205     Br  0.59978432  0.65913433  0.35914499    -0.06300
Br4206     Br  0.65146629  0.64312641  0.24865403    -0.03200
Br4207     Br  0.60576091  0.59989655  0.39683681    -0.00400
Br4208     Br  0.59036983  0.64417928  0.24981872    -0.04700
C4209       C  0.67620282  0.72363176  0.38678791    -0.12100
C4210       C  0.68624976  0.73241096  0.37892683     0.03300
C4211       C  0.68701805  0.74366310  0.40309405    -0.12700
C4212       C  0.67796798  0.74636809  0.43497647     0.18200
C4213       C  0.66812529  0.73761602  0.44347750    -0.09700
C4214       C  0.66738233  0.72631479  0.41985337    -0.02700
H4215       H  0.69462620  0.75041931  0.39667358     0.04700
C4216       C  0.67857672  0.75857124  0.45816666     0.20200
H4217       H  0.65951136  0.71986607  0.42620482     0.09900
C4218       C  0.67348816  0.76939990  0.43800207    -0.16000
C4219       C  0.67252071  0.78084370  0.46080954     0.02900
C4220       C  0.67665857  0.78146740  0.50513185    -0.11400
C4221       C  0.68238807  0.77067126  0.52417829    -0.01400
C4222       C  0.68339133  0.75931680  0.50101298    -0.06600
H4223       H  0.66993240  0.76883283  0.40465741     0.05900
H4224       H  0.68579679  0.77088758  0.55773050     0.09300
Br4225     Br  0.65505032  0.74107007  0.48522308    -0.06300
Br4226     Br  0.69930864  0.72983874  0.33625597    -0.03200
Br4227     Br  0.66531201  0.79491628  0.42871601    -0.00400
Br4228     Br  0.69112650  0.74493090  0.52927701    -0.04700
C4229       C  0.64794590  0.72006665  0.24067997    -0.12100
C4230       C  0.63773845  0.72673444  0.26027627     0.03300
C4231       C  0.63361640  0.73834715  0.24225951    -0.12700
C4232       C  0.63929069  0.74344282  0.20462572     0.18200
C4233       C  0.64880558  0.73642915  0.18348808    -0.09700
C4234       C  0.65290385  0.72485462  0.20114806    -0.02700
H4235       H  0.62631421  0.74370720  0.25876180     0.04700
C4236       C  0.63688277  0.75682768  0.19148506     0.20200
H4237       H  0.66064771  0.72001694  0.18512468     0.09900
C4238       C  0.64253260  0.76652959  0.21643708    -0.16000
C4239       C  0.64435872  0.77870539  0.19866892     0.02900
C4240       C  0.64075214  0.78120173  0.15479882    -0.11400
C4241       C  0.63333229  0.77205283  0.13253892    -0.01400
C4242       C  0.63130961  0.75993199  0.15079117    -0.06600
H4243       H  0.64645444  0.76436319  0.24851356     0.05900
H4244       H  0.63015635  0.77384239  0.09926390     0.09300
Br4245     Br  0.65770286  0.74299551  0.13337220    -0.06300
Br4246     Br  0.62934426  0.72118591  0.31279789    -0.03200
Br4247     Br  0.65254884  0.79127268  0.23486773    -0.00400
Br4248     Br  0.62197158  0.74750775  0.11755904    -0.04700
C4249       C  0.97154584  0.57866481  0.64067065    -0.12100
C4250       C  0.97233279  0.58836159  0.60797125     0.03300
C4251       C  0.98392573  0.59110935  0.58772268    -0.12700
C4252       C  0.99486950  0.58401117  0.59657851     0.18200
C4253       C  0.99407672  0.57402019  0.62775730    -0.09700
C4254       C  0.98259787  0.57160429  0.64993291    -0.02700
H4255       H  0.98437573  0.59890364  0.56438270     0.04700
C4256       C  0.00688088  0.58728026  0.57280488     0.20200
H4257       H  0.98231314  0.56408448  0.67432064     0.09900
C4258       C  0.01808891  0.58995895  0.59662524    -0.16000
C4259       C  0.02971156  0.59191576  0.57520306     0.02900
C4260       C  0.03025074  0.59179477  0.52919827    -0.11400
C4261       C  0.01887313  0.59044416  0.50533415    -0.01400
C4262       C  0.00732639  0.58792696  0.52648470    -0.06600
H4263       H  0.01791328  0.58998611  0.63208027     0.05900
H4264       H  0.01916375  0.58992856  0.46994725     0.09300
Br4265     Br  0.00815946  0.56296116  0.63989551    -0.06300
Br4266     Br  0.95828206  0.59862144  0.58811693    -0.03200
Br4267     Br  0.04489340  0.59382815  0.60961255    -0.00400
Br4268     Br  0.99296263  0.58378584  0.48979977    -0.04700
C4269       C  0.96399678  0.59476443  0.79733127    -0.12100
C4270       C  0.96401497  0.59286319  0.84311152     0.03300
C4271       C  0.97554674  0.59127610  0.86563461    -0.12700
C4272       C  0.98711159  0.59175213  0.84308208     0.18200
C4273       C  0.98712064  0.59516423  0.79833352    -0.09700
C4274       C  0.97559132  0.59687761  0.77602850    -0.02700
H4275       H  0.97545738  0.58893852  0.90022780     0.04700
C4276       C  0.99891995  0.58751275  0.86520720     0.20200
H4277       H  0.97574185  0.59809808  0.74075560     0.09900
C4278       C  0.00052137  0.57452940  0.87549389    -0.16000
C4279       C  0.01214517  0.57002807  0.89229930     0.02900
C4280       C  0.02242471  0.57855149  0.89765557    -0.11400
C4281       C  0.02059407  0.59155750  0.88852720    -0.01400
C4282       C  0.00892128  0.59609341  0.87348330    -0.06600
H4283       H  0.99279638  0.56786223  0.86960275     0.05900
H4284       H  0.02821468  0.59835088  0.89444388     0.09300
Br4285     Br  0.00245353  0.59560844  0.76450292    -0.06300
Br4286     Br  0.94842820  0.59091179  0.87498258    -0.03200
Br4287     Br  0.01372549  0.55221713  0.90517289    -0.00400
Br4288     Br  0.00693853  0.61412973  0.86606793    -0.04700
C4289       C  0.91678796  0.57872659  0.07982657    -0.12100
C4290       C  0.92025507  0.58828742  0.04908435     0.03300
C4291       C  0.92032690  0.58548169  0.00421128    -0.12700
C4292       C  0.91685640  0.57336557  0.98892349     0.18200
C4293       C  0.91263081  0.56413131  0.01896956    -0.09700
C4294       C  0.91259643  0.56683609  0.06371516    -0.02700
H4295       H  0.92342668  0.59270736  0.98111056     0.04700
C4296       C  0.91839842  0.57028765  0.94195504     0.20200
H4297       H  0.90969164  0.55934065  0.08606072     0.09900
C4298       C  0.92821571  0.56211810  0.92942835    -0.16000
C4299       C  0.93037646  0.55934235  0.88524217     0.02900
C4300       C  0.92255976  0.56483940  0.85226983    -0.11400
C4301       C  0.91249971  0.57277660  0.86545830    -0.01400
C4302       C  0.91043053  0.57553902  0.90959144    -0.06600
H4303       H  0.93437022  0.55800363  0.95430059     0.05900
H4304       H  0.90634773  0.57721138  0.84127627     0.09300
Br4305     Br  0.90698895  0.54759074  0.00038881    -0.06300
Br4306     Br  0.92518244  0.60529047  0.06511655    -0.03200
Br4307     Br  0.94422212  0.54807238  0.87323408    -0.00400
Br4308     Br  0.89657737  0.58651707  0.92417469    -0.04700
C4309       C  0.91892949  0.57406524  0.58067711    -0.12100
C4310       C  0.91579763  0.56214370  0.56139616     0.03300
C4311       C  0.91613016  0.56078793  0.51587060    -0.12700
C4312       C  0.91922523  0.57108138  0.48867182     0.18200
C4313       C  0.92146626  0.58310993  0.50724565    -0.09700
C4314       C  0.92140937  0.58450531  0.55277879    -0.02700
H4315       H  0.91410229  0.55157273  0.50150585     0.04700
C4316       C  0.92018476  0.56900347  0.44101008     0.20200
H4317       H  0.92363301  0.59377443  0.56632913     0.09900
C4318       C  0.90996907  0.57232121  0.41382076    -0.16000
C4319       C  0.91057835  0.57067661  0.36844572     0.02900
C4320       C  0.92164802  0.56539073  0.34933393    -0.11400
C4321       C  0.93175936  0.56181175  0.37727274    -0.01400
C4322       C  0.93113103  0.56366992  0.42256342    -0.06600
H4323       H  0.90150754  0.57639728  0.42804022     0.05900
H4324       H  0.94044458  0.55801299  0.36380588     0.09300
Br4325     Br  0.92505283  0.59778998  0.47169252    -0.06300
Br4326     Br  0.91119955  0.54708406  0.59394232    -0.03200
Br4327     Br  0.89589512  0.57622436  0.33573910    -0.00400
Br4328     Br  0.94571484  0.55946735  0.45785549    -0.04700
C4329       C  0.97008510  0.58212360  0.14205494    -0.12100
C4330       C  0.97202317  0.59364442  0.11824699     0.03300
C4331       C  0.98395274  0.59650327  0.10051736    -0.12700
C4332       C  0.99412073  0.58801240  0.10420901     0.18200
C4333       C  0.99226739  0.57656910  0.12809215    -0.09700
C4334       C  0.98042339  0.57381947  0.14700622    -0.02700
H4335       H  0.98529497  0.60547479  0.08343537     0.04700
C4336       C  0.00642140  0.59109164  0.08217461     0.20200
H4337       H  0.97927844  0.56505338  0.16547834     0.09900
C4338       C  0.01782548  0.59087880  0.10652458    -0.16000
C4339       C  0.02964215  0.59110317  0.08557595     0.02900
C4340       C  0.03025700  0.59229261  0.03969745    -0.11400
C4341       C  0.01894124  0.59431738  0.01607089    -0.01400
C4342       C  0.00708134  0.59348974  0.03657985    -0.06600
H4343       H  0.01753563  0.58964265  0.14174701     0.05900
H4344       H  0.01921136  0.59511903  0.98073917     0.09300
Br4345     Br  0.00536060  0.56402314  0.13480542    -0.06300
Br4346     Br  0.95925755  0.60645351  0.10951149    -0.03200
Br4347     Br  0.04464950  0.58870958  0.12045862    -0.00400
Br4348     Br  0.99229118  0.59398991  0.99921161    -0.04700
C4349       C  0.02510681  0.57828304  0.38478913    -0.12100
C4350       C  0.01459383  0.56987654  0.38536045     0.03300
C4351       C  0.00288157  0.57380451  0.36772106    -0.12700
C4352       C  0.00139464  0.58611968  0.35021846     0.18200
C4353       C  0.01175228  0.59463388  0.35105441    -0.09700
C4354       C  0.02348917  0.59062407  0.36745711    -0.02700
H4355       H  0.99491168  0.56720391  0.36739247     0.04700
C4356       C  0.98908942  0.58979094  0.33016398     0.20200
H4357       H  0.03127717  0.59743666  0.36836276     0.09900
C4358       C  0.97820679  0.59049792  0.35637413    -0.16000
C4359       C  0.96617942  0.59229431  0.33737183     0.02900
C4360       C  0.96497801  0.59377048  0.29161945    -0.11400
C4361       C  0.97600372  0.59415525  0.26599847    -0.01400
C4362       C  0.98793598  0.59176173  0.28462450    -0.06600
H4363       H  0.97899577  0.58898408  0.39140166     0.05900
H4364       H  0.97519569  0.59470361  0.23063775     0.09300
Br4365     Br  0.01012915  0.61205532  0.33250914    -0.06300
Br4366     Br  0.01578381  0.55289903  0.40841225    -0.03200
Br4367     Br  0.95152664  0.59151555  0.37446453    -0.00400
Br4368     Br  0.00195465  0.58926477  0.24561626    -0.04700
C4369       C  0.78272491  0.68285633  0.77348637    -0.12100
C4370       C  0.77538665  0.67365251  0.79590354     0.03300
C4371       C  0.76207887  0.67408978  0.79361661    -0.12700
C4372       C  0.75578364  0.68325636  0.76785316     0.18200
C4373       C  0.76313189  0.69225789  0.74449080    -0.09700
C4374       C  0.77642596  0.69210935  0.74801292    -0.02700
H4375       H  0.75658333  0.66725817  0.81244518     0.04700
C4376       C  0.74162432  0.68376304  0.76875251     0.20200
H4377       H  0.78189301  0.69902582  0.72945454     0.09900
C4378       C  0.73572037  0.69490796  0.78310658    -0.16000
C4379       C  0.72255670  0.69540211  0.78948923     0.02900
C4380       C  0.71496451  0.68432803  0.78322701    -0.11400
C4381       C  0.72088475  0.67325705  0.76781691    -0.01400
C4382       C  0.73398555  0.67299755  0.75958247    -0.06600
H4383       H  0.74146088  0.70323027  0.79066580     0.05900
H4384       H  0.71530386  0.66471385  0.76210420     0.09300
Br4385     Br  0.75559539  0.70446777  0.70526549    -0.06300
Br4386     Br  0.78288646  0.66051876  0.83135124    -0.03200
Br4387     Br  0.71602572  0.71140461  0.80940299    -0.00400
Br4388     Br  0.74091120  0.65784619  0.73447450    -0.04700
C4389       C  0.85824377  0.65373221  0.76920425    -0.12100
C4390       C  0.85825262  0.64235115  0.79437093     0.03300
C4391       C  0.86774240  0.63323907  0.78805252    -0.12700
C4392       C  0.87743937  0.63525110  0.75750057     0.18200
C4393       C  0.87775283  0.64676232  0.73367827    -0.09700
C4394       C  0.86823600  0.65587210  0.73964235    -0.02700
H4395       H  0.86753980  0.62449106  0.80700924     0.04700
C4396       C  0.88681358  0.62501292  0.74968036     0.20200
H4397       H  0.86855144  0.66458405  0.72051841     0.09900
C4398       C  0.88561427  0.61759309  0.71180250    -0.16000
C4399       C  0.89411612  0.60769120  0.70346455     0.02900
C4400       C  0.90408626  0.60506986  0.73331139    -0.11400
C4401       C  0.90538180  0.61260120  0.77099210    -0.01400
C4402       C  0.89676505  0.62242377  0.77953696    -0.06600
H4403       H  0.87803866  0.61955729  0.68851401     0.05900
H4404       H  0.91305090  0.61075915  0.79403395     0.09300
Br4405     Br  0.89112153  0.65049998  0.69311943    -0.06300
Br4406     Br  0.84609510  0.63886984  0.83969202    -0.03200
Br4407     Br  0.89219118  0.59862262  0.64936767    -0.00400
Br4408     Br  0.89904650  0.63221792  0.83186341    -0.04700
C4409       C  0.84715499  0.71174139  0.67753222    -0.12100
C4410       C  0.84259206  0.71238535  0.63393601     0.03300
C4411       C  0.84143011  0.72417723  0.61297307    -0.12700
C4412       C  0.84571575  0.73543472  0.63303717     0.18200
C4413       C  0.85255329  0.73440405  0.67297552    -0.09700
C4414       C  0.85312401  0.72262169  0.69511680    -0.02700
H4415       H  0.83645228  0.72458205  0.58183435     0.04700
C4416       C  0.84164879  0.74794981  0.61401070     0.20200
H4417       H  0.85702375  0.72233525  0.72803650     0.09900
C4418       C  0.83509167  0.75671861  0.64026116    -0.16000
C4419       C  0.83012277  0.76802617  0.62259076     0.02900
C4420       C  0.83097365  0.77042488  0.57735981    -0.11400
C4421       C  0.83735602  0.76164064  0.55099161    -0.01400
C4422       C  0.84297987  0.75072990  0.56900801    -0.06600
H4423       H  0.83379253  0.75480269  0.67471544     0.05900
H4424       H  0.83861249  0.76364731  0.51647606     0.09300
Br4425     Br  0.86042162  0.74891303  0.70022888    -0.06300
Br4426     Br  0.83687251  0.69757683  0.60248701    -0.03200
Br4427     Br  0.82209625  0.77981181  0.66124711    -0.00400
Br4428     Br  0.85338629  0.74060324  0.53150618    -0.04700
C4429       C  0.82835442  0.72369052  0.82618223    -0.12100
C4430       C  0.82967517  0.73481347  0.80061232     0.03300
C4431       C  0.83275669  0.74633477  0.82053233    -0.12700
C4432       C  0.83321293  0.74750338  0.86630086     0.18200
C4433       C  0.83076605  0.73659051  0.89225044    -0.09700
C4434       C  0.82898061  0.72472150  0.87207571    -0.02700
H4435       H  0.83409378  0.75468216  0.80000203     0.04700
C4436       C  0.83382753  0.76059939  0.88452509     0.20200
H4437       H  0.82760080  0.71632745  0.89230343     0.09900
C4438       C  0.82516995  0.76941827  0.86754508    -0.16000
C4439       C  0.82501696  0.78194107  0.88172954     0.02900
C4440       C  0.83308758  0.78585397  0.91676782    -0.11400
C4441       C  0.84230887  0.77722228  0.93227894    -0.01400
C4442       C  0.84295631  0.76477377  0.91556916    -0.06600
H4443       H  0.81834615  0.76651229  0.84267563     0.05900
H4444       H  0.84876918  0.77999858  0.95838285     0.09300
Br4445     Br  0.82828091  0.73747931  0.95440068    -0.06300
Br4446     Br  0.82675784  0.73527136  0.73868998    -0.03200
Br4447     Br  0.81313422  0.79271663  0.85101913    -0.00400
Br4448     Br  0.85668899  0.75413746  0.93488197    -0.04700
C4449       C  0.78132361  0.67866227  0.27963361    -0.12100
C4450       C  0.77504615  0.66921391  0.30499496     0.03300
C4451       C  0.76176104  0.66944284  0.30910499    -0.12700
C4452       C  0.75451337  0.67885722  0.28812596     0.18200
C4453       C  0.76067024  0.68794150  0.26156757    -0.09700
C4454       C  0.77393660  0.68786659  0.25782627    -0.02700
H4455       H  0.75706853  0.66238322  0.32944979     0.04700
C4456       C  0.74055964  0.67922771  0.29463175     0.20200
H4457       H  0.77851906  0.69514408  0.23807523     0.09900
C4458       C  0.73541061  0.68807011  0.32381604    -0.16000
C4459       C  0.72219569  0.68918191  0.32865630     0.02900
C4460       C  0.71389897  0.68150310  0.30340161    -0.11400
C4461       C  0.71913693  0.67228348  0.27568104    -0.01400
C4462       C  0.73232258  0.67109049  0.27127850    -0.06600
H4463       H  0.74170682  0.69415040  0.34277615     0.05900
H4464       H  0.71294542  0.66623619  0.25618326     0.09300
Br4465     Br  0.75128814  0.70057397  0.22954850    -0.06300
Br4466     Br  0.78395428  0.65632574  0.33770638    -0.03200
Br4467     Br  0.71606134  0.70070864  0.37206692    -0.00400
Br4468     Br  0.73867848  0.65857903  0.23164446    -0.04700
C4469       C  0.82618619  0.67049743  0.14080323    -0.12100
C4470       C  0.82008208  0.66012526  0.11999917     0.03300
C4471       C  0.82037778  0.65921517  0.07409608    -0.12700
C4472       C  0.82675260  0.66846823  0.04891868     0.18200
C4473       C  0.83268449  0.67881530  0.06969531    -0.09700
C4474       C  0.83234648  0.67975730  0.11492571    -0.02700
H4475       H  0.81569282  0.65127668  0.05802407     0.04700
C4476       C  0.82662695  0.66791315  0.00080805     0.20200
H4477       H  0.83693459  0.68793562  0.12992904     0.09900
C4478       C  0.81621371  0.67312027  0.97833698    -0.16000
C4479       C  0.81668278  0.67518135  0.93316818     0.02900
C4480       C  0.82765541  0.67176688  0.90975269    -0.11400
C4481       C  0.83800048  0.66635678  0.93219876    -0.01400
C4482       C  0.83756303  0.66443151  0.97747136    -0.06600
H4483       H  0.80798116  0.67626237  0.99641218     0.05900
H4484       H  0.84648902  0.66374077  0.91452400     0.09300
Br4485     Br  0.84115565  0.69214663  0.03762654    -0.06300
Br4486     Br  0.81178055  0.64676579  0.15219256    -0.03200
Br4487     Br  0.80274034  0.68408796  0.90624495    -0.00400
Br4488     Br  0.85231908  0.65765710  0.00645536    -0.04700
C4489       C  0.81555334  0.66994346  0.41369855    -0.12100
C4490       C  0.81818117  0.65758086  0.43023109     0.03300
C4491       C  0.81701912  0.65505394  0.47523986    -0.12700
C4492       C  0.81318790  0.66457279  0.50426020     0.18200
C4493       C  0.81054714  0.67682719  0.48789234    -0.09700
C4494       C  0.81161605  0.67934563  0.44328449    -0.02700
H4495       H  0.81924882  0.64565368  0.48777736     0.04700
C4496       C  0.81329506  0.66220390  0.55199325     0.20200
H4497       H  0.80963658  0.68893044  0.43200964     0.09900
C4498       C  0.82508054  0.66094744  0.57340448    -0.16000
C4499       C  0.82603747  0.66236393  0.61879801     0.02900
C4500       C  0.81510118  0.66533240  0.64296288    -0.11400
C4501       C  0.80316467  0.66530782  0.62219737    -0.01400
C4502       C  0.80216663  0.66343704  0.57704123    -0.06600
H4503       H  0.83367698  0.65983963  0.55445716     0.05900
H4504       H  0.79467902  0.66730520  0.64083537     0.09300
Br4505     Br  0.80636117  0.69084660  0.52530600    -0.06300
Br4506     Br  0.82330049  0.64364728  0.39405428    -0.03200
Br4507     Br  0.84266873  0.66187721  0.64526945    -0.00400
Br4508     Br  0.78555298  0.66349205  0.55053126    -0.04700
C4509       C  0.85942791  0.65753349  0.27824014    -0.12100
C4510       C  0.86632835  0.65561045  0.23943425     0.03300
C4511       C  0.87536242  0.64593699  0.23741217    -0.12700
C4512       C  0.87770021  0.63799909  0.27352680     0.18200
C4513       C  0.87121054  0.64019990  0.31296046    -0.09700
C4514       C  0.86202615  0.64984665  0.31494989    -0.02700
H4515       H  0.88029411  0.64429553  0.20693987     0.04700
C4516       C  0.88628254  0.62700784  0.26769133     0.20200
H4517       H  0.85665826  0.65111461  0.34474362     0.09900
C4518       C  0.89889841  0.62766766  0.28275165    -0.16000
C4519       C  0.90763692  0.61808457  0.27261192     0.02900
C4520       C  0.90375522  0.60758257  0.24658615    -0.11400
C4521       C  0.89092145  0.60674981  0.23337783    -0.01400
C4522       C  0.88227198  0.61633757  0.24345385    -0.06600
H4523       H  0.90203435  0.63583245  0.30160684     0.05900
H4524       H  0.88763230  0.59879429  0.21379456     0.09300
Br4525     Br  0.87414147  0.62984798  0.36386102    -0.06300
Br4526     Br  0.86314394  0.66520393  0.18695245    -0.03200
Br4527     Br  0.92456176  0.61996466  0.29607719    -0.00400
Br4528     Br  0.86510057  0.61463351  0.22230739    -0.04700
C4529       C  0.81702143  0.77914990  0.07360343    -0.12100
C4530       C  0.82377996  0.77764031  0.11385808     0.03300
C4531       C  0.82336293  0.76598674  0.13639916    -0.12700
C4532       C  0.81646201  0.75559412  0.12000502     0.18200
C4533       C  0.80964611  0.75700262  0.08051133    -0.09700
C4534       C  0.80990969  0.76867029  0.05782942    -0.02700
H4535       H  0.82866156  0.76494368  0.16677664     0.04700
C4536       C  0.81698786  0.74327977  0.14408119     0.20200
H4537       H  0.80470882  0.76942544  0.02718733     0.09900
C4538       C  0.80833860  0.74076768  0.17781972    -0.16000
C4539       C  0.80936439  0.72974527  0.20386622     0.02900
C4540       C  0.81948981  0.72110784  0.19709046    -0.11400
C4541       C  0.82777132  0.72347195  0.16179863    -0.01400
C4542       C  0.82655962  0.73436752  0.13548573    -0.06600
H4543       H  0.80079805  0.74748466  0.18413973     0.05900
H4544       H  0.83548156  0.71698642  0.15512015     0.09300
Br4545     Br  0.80014718  0.74309233  0.05594058    -0.06300
Br4546     Br  0.83402390  0.79074235  0.14076111    -0.03200
Br4547     Br  0.79631741  0.72704237  0.24673887    -0.00400
Br4548     Br  0.83839252  0.73688404  0.08864462    -0.04700
C4549       C  0.84653032  0.71659303  0.35082150    -0.12100
C4550       C  0.84322222  0.71984852  0.39412200     0.03300
C4551       C  0.84618851  0.73198673  0.41002577    -0.12700
C4552       C  0.85277345  0.74084858  0.38407746     0.18200
C4553       C  0.85765932  0.73698623  0.34360427    -0.09700
C4554       C  0.85449622  0.72494797  0.32715746    -0.02700
H4555       H  0.84260799  0.73479965  0.44165056     0.04700
C4556       C  0.85241512  0.75442567  0.39658103     0.20200
H4557       H  0.85744260  0.72258329  0.29429748     0.09900
C4558       C  0.85965995  0.75883518  0.43217635    -0.16000
C4559       C  0.85738365  0.77084767  0.45043502     0.02900
C4560       C  0.84748771  0.77855524  0.43324330    -0.11400
C4561       C  0.84129614  0.77456757  0.39451699    -0.01400
C4562       C  0.84351496  0.76259937  0.37668747    -0.06600
H4563       H  0.86669225  0.75265408  0.44711360     0.05900
H4564       H  0.83384892  0.78030281  0.37987115     0.09300
Br4565     Br  0.86771608  0.74829996  0.30831091    -0.06300
Br4566     Br  0.83430762  0.70840452  0.43267953    -0.03200
Br4567     Br  0.86761486  0.77557594  0.50017637    -0.00400
Br4568     Br  0.83291883  0.75727150  0.32846070    -0.04700
C4569       C  0.66477515  0.22508002  0.76073489    -0.12100
C4570       C  0.67309301  0.23560715  0.76327361     0.03300
C4571       C  0.66864896  0.24726132  0.77924943    -0.12700
C4572       C  0.65585436  0.24877089  0.79155066     0.18200
C4573       C  0.64744661  0.23836186  0.78749273    -0.09700
C4574       C  0.65200932  0.22661960  0.77344074    -0.02700
H4575       H  0.67521319  0.25522516  0.78197297     0.04700
C4576       C  0.65167756  0.26124378  0.80892405     0.20200
H4577       H  0.64529676  0.21880453  0.76996350     0.09900
C4578       C  0.65341022  0.27226326  0.78332640    -0.16000
C4579       C  0.65247307  0.28438013  0.80188312     0.02900
C4580       C  0.64953524  0.28559041  0.84669303    -0.11400
C4581       C  0.64603032  0.27465778  0.87038090    -0.01400
C4582       C  0.64755866  0.26254832  0.85254954    -0.06600
H4583       H  0.65645614  0.27144262  0.74968156     0.05900
H4584       H  0.64400310  0.27536543  0.90503453     0.09300
Br4585     Br  0.62946791  0.23991159  0.79697061    -0.06300
Br4586     Br  0.69058620  0.23448647  0.74650536    -0.03200
Br4587     Br  0.65678704  0.29888486  0.76618543    -0.00400
Br4588     Br  0.64635080  0.24839699  0.89225201    -0.04700
C4589       C  0.66294708  0.27383933  0.98993372    -0.12100
C4590       C  0.67120256  0.26346784  0.99572925     0.03300
C4591       C  0.66670167  0.25226703  0.01585879    -0.12700
C4592       C  0.65398661  0.25117444  0.02986780     0.18200
C4593       C  0.64565792  0.26137676  0.02241754    -0.09700
C4594       C  0.65016433  0.27254280  0.00280416    -0.02700
H4595       H  0.67325520  0.24452587  0.02194665     0.04700
C4596       C  0.65005751  0.23990352  0.05612083     0.20200
H4597       H  0.64358468  0.28031562  0.99754810     0.09900
C4598       C  0.64713394  0.24150780  0.10054257    -0.16000
C4599       C  0.64620153  0.23100050  0.12878434     0.02900
C4600       C  0.64862690  0.21868712  0.11285811    -0.11400
C4601       C  0.65006655  0.21701426  0.06753904    -0.01400
C4602       C  0.65063872  0.22749531  0.03915990    -0.06600
H4603       H  0.64642061  0.25100950  0.11392214     0.05900
H4604       H  0.65180615  0.20758899  0.05466319     0.09300
Br4605     Br  0.62801815  0.26048307  0.03803158    -0.06300
Br4606     Br  0.68882127  0.26451555  0.98019569    -0.03200
Br4607     Br  0.64334969  0.23424469  0.18955345    -0.00400
Br4608     Br  0.65279276  0.22444458  0.97792773    -0.04700
C4609       C  0.66957343  0.33289389  0.57328785    -0.12100
C4610       C  0.66049174  0.32842413  0.60399210     0.03300
C4611       C  0.66325203  0.32882812  0.64888275    -0.12700
C4612       C  0.67473549  0.33397556  0.66458483     0.18200
C4613       C  0.68343455  0.33917067  0.63451329    -0.09700
C4614       C  0.68085086  0.33856083  0.58953259    -0.02700
H4615       H  0.65646238  0.32484698  0.67180609     0.04700
C4616       C  0.67769090  0.33306225  0.71210900     0.20200
H4617       H  0.68790561  0.34230694  0.56714896     0.09900
C4618       C  0.68784330  0.32540694  0.72623215    -0.16000
C4619       C  0.69005503  0.32309217  0.77085938     0.02900
C4620       C  0.68188888  0.32838112  0.80244922    -0.11400
C4621       C  0.67211714  0.33654930  0.78818573    -0.01400
C4622       C  0.66996068  0.33887391  0.74360525    -0.06600
H4623       H  0.69389306  0.32093074  0.70230375     0.05900
H4624       H  0.66572588  0.34073185  0.81169164     0.09300
Br4625     Br  0.69895666  0.34724209  0.65328398    -0.06300
Br4626     Br  0.64420031  0.32142073  0.58833221    -0.03200
Br4627     Br  0.70447838  0.31279924  0.78617554    -0.00400
Br4628     Br  0.65622624  0.34993895  0.72737702    -0.04700
C4629       C  0.68388111  0.32476103  0.30530493    -0.12100
C4630       C  0.69107492  0.31680996  0.27759722     0.03300
C4631       C  0.68914977  0.31724958  0.23211547    -0.12700
C4632       C  0.68023789  0.32554620  0.21316648     0.18200
C4633       C  0.67342700  0.33379509  0.24043508    -0.09700
C4634       C  0.67530442  0.33338934  0.28583374    -0.02700
H4635       H  0.69449281  0.31090749  0.21138948     0.04700
C4636       C  0.67778075  0.32512399  0.16521474     0.20200
H4637       H  0.66961241  0.33955498  0.30607237     0.09900
C4638       C  0.66591837  0.32080144  0.14980856    -0.16000
C4639       C  0.66313498  0.32026037  0.10488054     0.02900
C4640       C  0.67238585  0.32421229  0.07393668    -0.11400
C4641       C  0.68433268  0.32842467  0.08984253    -0.01400
C4642       C  0.68707893  0.32883070  0.13474590    -0.06600
H4643       H  0.65877380  0.31772821  0.17306514     0.05900
H4644       H  0.69170769  0.33136175  0.06727736     0.09300
Br4645     Br  0.66135400  0.34574024  0.21720518    -0.06300
Br4646     Br  0.70375668  0.30519047  0.29901880    -0.03200
Br4647     Br  0.64660544  0.31369007  0.08932447    -0.00400
Br4648     Br  0.70361409  0.33474436  0.15282218    -0.04700
C4649       C  0.65071080  0.28527863  0.36251185    -0.12100
C4650       C  0.64698448  0.27420918  0.38549252     0.03300
C4651       C  0.64915003  0.26224032  0.36733824    -0.12700
C4652       C  0.65396253  0.26109865  0.32480256     0.18200
C4653       C  0.65483915  0.27215286  0.29854231    -0.09700
C4654       C  0.65375293  0.28414809  0.31794879    -0.02700
H4655       H  0.64748221  0.25381925  0.38716786     0.04700
C4656       C  0.65781444  0.24835861  0.30872844     0.20200
H4657       H  0.65608742  0.29258108  0.29895791     0.09900
C4658       C  0.64935833  0.23811659  0.31347197    -0.16000
C4659       C  0.65234921  0.22602315  0.29811934     0.02900
C4660       C  0.66387721  0.22407944  0.27503125    -0.11400
C4661       C  0.67270222  0.23415344  0.27281270    -0.01400
C4662       C  0.66995702  0.24606627  0.29085129    -0.06600
H4663       H  0.64020311  0.23957752  0.32869166     0.05900
H4664       H  0.68177808  0.23276503  0.25697763     0.09300
Br4665     Br  0.65728404  0.27134204  0.23636723    -0.06300
Br4666     Br  0.63970882  0.27467794  0.44257041    -0.03200
Br4667     Br  0.63958421  0.21315327  0.30832179    -0.00400
Br4668     Br  0.68342918  0.25850737  0.29288540    -0.04700
C4669       C  0.66433902  0.27977081  0.52003202    -0.12100
C4670       C  0.65298291  0.27802071  0.54439845     0.03300
C4671       C  0.65040332  0.26631796  0.56444705    -0.12700
C4672       C  0.65882465  0.25614551  0.56104008     0.18200
C4673       C  0.67025030  0.25785395  0.53784179    -0.09700
C4674       C  0.67290545  0.26956318  0.51757008    -0.02700
H4675       H  0.64154362  0.26500858  0.58189994     0.04700
C4676       C  0.65536921  0.24380631  0.58147635     0.20200
H4677       H  0.68163235  0.27061077  0.49920451     0.09900
C4678       C  0.65316191  0.23311489  0.55497146    -0.16000
C4679       C  0.65127927  0.22106400  0.57375490     0.02900
C4680       C  0.65114575  0.21968712  0.61960567    -0.11400
C4681       C  0.65192001  0.23061389  0.64577457    -0.01400
C4682       C  0.65439180  0.24254798  0.62723068    -0.06600
H4683       H  0.65357118  0.23404534  0.51965654     0.05900
H4684       H  0.65213657  0.22968729  0.68102311     0.09300
Br4685     Br  0.68257788  0.24452861  0.53341282    -0.06300
Br4686     Br  0.63960596  0.29032279  0.54797461    -0.03200
Br4687     Br  0.64986614  0.20657544  0.53600913    -0.00400
Br4688     Br  0.65821688  0.25640172  0.66598328    -0.04700
C4689       C  0.56446836  0.46735663  0.88614477    -0.12100
C4690       C  0.55740582  0.47258685  0.85115639     0.03300
C4691       C  0.55677850  0.48583445  0.84605068    -0.12700
C4692       C  0.56289009  0.49398797  0.87599994     0.18200
C4693       C  0.56970945  0.48871205  0.91152272    -0.09700
C4694       C  0.57067715  0.47550522  0.91575301    -0.02700
H4695       H  0.55142698  0.48980262  0.81883290     0.04700
C4696       C  0.56169926  0.50793826  0.87042589     0.20200
H4697       H  0.57579371  0.47156742  0.94357634     0.09900
C4698       C  0.54971364  0.51357045  0.87433984    -0.16000
C4699       C  0.54815293  0.52673584  0.86908254     0.02900
C4700       C  0.55883399  0.53462378  0.86021637    -0.11400
C4701       C  0.57083248  0.52880393  0.85625527    -0.01400
C4702       C  0.57228765  0.51565114  0.86060292    -0.06600
H4703       H  0.54148916  0.50764724  0.88141491     0.05900
H4704       H  0.57919435  0.53444816  0.84857998     0.09300
Br4705     Br  0.57694760  0.49906675  0.95710306    -0.06300
Br4706     Br  0.54872104  0.46204235  0.80922212    -0.03200
Br4707     Br  0.53112457  0.53292219  0.87391795    -0.00400
Br4708     Br  0.58881321  0.50862562  0.85014421    -0.04700
C4709       C  0.59439598  0.39346396  0.92570569    -0.12100
C4710       C  0.60535922  0.39408461  0.89873271     0.03300
C4711       C  0.61425508  0.38427530  0.89996948    -0.12700
C4712       C  0.61255906  0.37372162  0.92730315     0.18200
C4713       C  0.60174840  0.37298379  0.95413752    -0.09700
C4714       C  0.59272366  0.38276693  0.95300587    -0.02700
H4715       H  0.62257530  0.38484908  0.87925826     0.04700
C4716       C  0.62245925  0.36382014  0.92823342     0.20200
H4717       H  0.58440905  0.38202366  0.97365094     0.09900
C4718       C  0.63152652  0.36398754  0.96202753    -0.16000
C4719       C  0.64124143  0.35497510  0.96368282     0.02900
C4720       C  0.64184619  0.34543223  0.93132590    -0.11400
C4721       C  0.63280163  0.34533813  0.89728428    -0.01400
C4722       C  0.62327998  0.35458561  0.89512925    -0.06600
H4723       H  0.63102683  0.37118462  0.98726613     0.05900
H4724       H  0.63323247  0.33813514  0.87205887     0.09300
Br4725     Br  0.59893420  0.35869231  0.99226371    -0.06300
Br4726     Br  0.60874210  0.40751691  0.85720457    -0.03200
Br4727     Br  0.65291159  0.35582112  0.01235280    -0.00400
Br4728     Br  0.61163753  0.35429137  0.84648942    -0.04700
C4729       C  0.52432740  0.41912705  0.85264858    -0.12100
C4730       C  0.51918920  0.40682142  0.84544056     0.03300
C4731       C  0.50739277  0.40541746  0.82466017    -0.12700
C4732       C  0.50059141  0.41605186  0.81014739     0.18200
C4733       C  0.50582928  0.42833400  0.81634842    -0.09700
C4734       C  0.51755475  0.42979266  0.83793495    -0.02700
H4735       H  0.50334416  0.39596781  0.82071374     0.04700
C4736       C  0.48759678  0.41416879  0.79223426     0.20200
H4737       H  0.52146658  0.43926204  0.84277963     0.09900
C4738       C  0.47732175  0.41877475  0.81609667    -0.16000
C4739       C  0.46491915  0.41793834  0.79971486     0.02900
C4740       C  0.46251868  0.41207986  0.75861232    -0.11400
C4741       C  0.47279064  0.40662535  0.73632922    -0.01400
C4742       C  0.48526016  0.40773778  0.75258771    -0.06600
H4743       H  0.47903257  0.42346602  0.84713348     0.05900
H4744       H  0.47130387  0.40240593  0.70439320     0.09300
Br4745     Br  0.49749967  0.44334368  0.79483765    -0.06300
Br4746     Br  0.52726737  0.39152463  0.86587644    -0.03200
Br4747     Br  0.45203935  0.42592410  0.83440801    -0.00400
Br4748     Br  0.49887874  0.40147804  0.71737530    -0.04700
C4749       C  0.47525505  0.42276992  0.11481740    -0.12100
C4750       C  0.48493249  0.43195048  0.10887173     0.03300
C4751       C  0.49662572  0.42834264  0.09047089    -0.12700
C4752       C  0.49896429  0.41557737  0.07906702     0.18200
C4753       C  0.48958297  0.40633597  0.08794600    -0.09700
C4754       C  0.47782551  0.41000240  0.10455441    -0.02700
H4755       H  0.50383857  0.43554484  0.08438868     0.04700
C4756       C  0.51093247  0.41211979  0.05627313     0.20200
H4757       H  0.47069805  0.40270673  0.11053635     0.09900
C4758       C  0.52270862  0.41343968  0.07788175    -0.16000
C4759       C  0.53416036  0.41154756  0.05546991     0.02900
C4760       C  0.53397816  0.40818396  0.01073922    -0.11400
C4761       C  0.52219089  0.40586195  0.99032289    -0.01400
C4762       C  0.51075780  0.40802520  0.01229039    -0.06600
H4763       H  0.52300474  0.41643371  0.11176266     0.05900
H4764       H  0.52182151  0.40382330  0.95561175     0.09300
Br4765     Br  0.49257689  0.38849523  0.07969620    -0.06300
Br4766     Br  0.48238204  0.44948468  0.12331976    -0.03200
Br4767     Br  0.54989292  0.41455682  0.08618952    -0.00400
Br4768     Br  0.49526571  0.40695464  0.97868476    -0.04700
C4769       C  0.56390334  0.46880444  0.41000183    -0.12100
C4770       C  0.57442893  0.47622791  0.42418642     0.03300
C4771       C  0.57433533  0.48950217  0.41835773    -0.12700
C4772       C  0.56389792  0.49560304  0.39872906     0.18200
C4773       C  0.55335247  0.48827299  0.38519090    -0.09700
C4774       C  0.55337198  0.47507485  0.39121210    -0.02700
H4775       H  0.58247921  0.49510148  0.42898894     0.04700
C4776       C  0.56428093  0.50954287  0.39099380     0.20200
H4777       H  0.54525862  0.46964304  0.37935574     0.09900
C4778       C  0.57141607  0.51438207  0.35598566    -0.16000
C4779       C  0.57122146  0.52738205  0.34548350     0.02900
C4780       C  0.56376400  0.53580786  0.37033501    -0.11400
C4781       C  0.55676532  0.53095344  0.40577650    -0.01400
C4782       C  0.55707579  0.51796014  0.41643151    -0.06600
H4783       H  0.57688009  0.50794812  0.33597596     0.05900
H4784       H  0.55106793  0.53730018  0.42534363     0.09300
Br4785     Br  0.53899904  0.49578637  0.35590286    -0.06300
Br4786     Br  0.58905416  0.46898104  0.45262910    -0.03200
Br4787     Br  0.58045596  0.53283437  0.29458223    -0.00400
Br4788     Br  0.54758236  0.51206993  0.46604570    -0.04700
C4789       C  0.57741825  0.42293100  0.54675340    -0.12100
C4790       C  0.57625036  0.43391708  0.57281144     0.03300
C4791       C  0.57762327  0.43295454  0.61843172    -0.12700
C4792       C  0.58017511  0.42119428  0.63871206     0.18200
C4793       C  0.58190474  0.41037064  0.61249915    -0.09700
C4794       C  0.58052055  0.41130736  0.56709493    -0.02700
H4795       H  0.57608178  0.44130340  0.63836785     0.04700
C4796       C  0.57943657  0.42009038  0.68704124     0.20200
H4797       H  0.58155965  0.40278654  0.54758656     0.09900
C4798       C  0.56944035  0.41297092  0.70522292    -0.16000
C4799       C  0.56774340  0.41225843  0.75052107     0.02900
C4800       C  0.57614718  0.41889460  0.77888488    -0.11400
C4801       C  0.58628438  0.42588463  0.76052318    -0.01400
C4802       C  0.58799161  0.42648650  0.71509158    -0.06600
H4803       H  0.56269983  0.40816727  0.68383970     0.05900
H4804       H  0.59289896  0.43095868  0.78160542     0.09300
Br4805     Br  0.58589834  0.39402120  0.63721903    -0.06300
Br4806     Br  0.57142296  0.45011940  0.54878865    -0.03200
Br4807     Br  0.55312656  0.40287046  0.77034180    -0.00400
Br4808     Br  0.60221727  0.43598149  0.69286197    -0.04700
C4809       C  0.57794070  0.43582604  0.27656283    -0.12100
C4810       C  0.57913987  0.44777430  0.25599547     0.03300
C4811       C  0.58096248  0.44847337  0.21069222    -0.12700
C4812       C  0.58102002  0.43738280  0.18505123     0.18200
C4813       C  0.58064913  0.42539045  0.20635889    -0.09700
C4814       C  0.57927084  0.42473721  0.25184637    -0.02700
H4815       H  0.58161052  0.45773782  0.19506770     0.04700
C4816       C  0.58024658  0.43853234  0.13648943     0.20200
H4817       H  0.57831895  0.41550842  0.26759607     0.09900
C4818       C  0.58921763  0.43242832  0.11016831    -0.16000
C4819       C  0.58779976  0.43201971  0.06448823     0.02900
C4820       C  0.57758895  0.43855624  0.04384380    -0.11400
C4821       C  0.56909148  0.44529663  0.07039478    -0.01400
C4822       C  0.57014347  0.44509809  0.11597949    -0.06600
H4823       H  0.59708371  0.42743177  0.12544829     0.05900
H4824       H  0.56106898  0.45022976  0.05588254     0.09300
Br4825     Br  0.58055588  0.40954976  0.17522395    -0.06300
Br4826     Br  0.57787095  0.46332394  0.28838339    -0.03200
Br4827     Br  0.59958546  0.42139762  0.03387763    -0.00400
Br4828     Br  0.55663478  0.45287851  0.14820394    -0.04700
C4829       C  0.59160659  0.39279215  0.40019267    -0.12100
C4830       C  0.59136389  0.38134897  0.42459758     0.03300
C4831       C  0.60128888  0.37254961  0.42074383    -0.12700
C4832       C  0.61163106  0.37491058  0.39295498     0.18200
C4833       C  0.61169242  0.38613100  0.36741012    -0.09700
C4834       C  0.60180892  0.39500149  0.37146800    -0.02700
H4835       H  0.60120673  0.36404300  0.44097473     0.04700
C4836       C  0.62270601  0.36611758  0.39470649     0.20200
H4837       H  0.60216823  0.40374330  0.35251117     0.09900
C4838       C  0.62210002  0.35428764  0.37351662    -0.16000
C4839       C  0.63173729  0.34518130  0.37953848     0.02900
C4840       C  0.64209335  0.34771429  0.40820468    -0.11400
C4841       C  0.64296984  0.35985184  0.42734761    -0.01400
C4842       C  0.63344377  0.36896944  0.42082934    -0.06600
H4843       H  0.61400791  0.35206313  0.35267482     0.05900
H4844       H  0.65085115  0.36211402  0.44909147     0.09300
Br4845     Br  0.62519002  0.38978094  0.32723113    -0.06300
Br4846     Br  0.57847556  0.37789381  0.46726840    -0.03200
Br4847     Br  0.63047580  0.32972115  0.34642946    -0.00400
Br4848     Br  0.63512851  0.38496114  0.45049052    -0.04700
C4849       C  0.53122060  0.40268469  0.33183404    -0.12100
C4850       C  0.52777918  0.40591741  0.28835577     0.03300
C4851       C  0.51524897  0.40386985  0.27385064    -0.12700
C4852       C  0.50612820  0.39841925  0.30173638     0.18200
C4853       C  0.51003284  0.39355714  0.34259155    -0.09700
C4854       C  0.52248781  0.39568621  0.35730833    -0.02700
H4855       H  0.51243045  0.40721913  0.24161619     0.04700
C4856       C  0.49249327  0.39935612  0.28961325     0.20200
H4857       H  0.52493830  0.39282851  0.39042788     0.09900
C4858       C  0.48765312  0.39224717  0.25450206    -0.16000
C4859       C  0.47543353  0.39455092  0.23754063     0.02900
C4860       C  0.46794780  0.40446878  0.25511826    -0.11400
C4861       C  0.47247438  0.41072272  0.29291569    -0.01400
C4862       C  0.48461309  0.40834096  0.30989504    -0.06600
H4863       H  0.49358826  0.38515317  0.23927222     0.05900
H4864       H  0.46695605  0.41822522  0.30766215     0.09300
Br4865     Br  0.49841619  0.38485137  0.38074237    -0.06300
Br4866     Br  0.53957644  0.41349317  0.24789518    -0.03200
Br4867     Br  0.46996956  0.38398150  0.18976205    -0.00400
Br4868     Br  0.49046266  0.41870048  0.35781529    -0.04700
C4869       C  0.52363531  0.42700562  0.47854497    -0.12100
C4870       C  0.51569061  0.43782883  0.47457344     0.03300
C4871       C  0.50447824  0.43864403  0.49935010    -0.12700
C4872       C  0.50088837  0.42886734  0.52838744     0.18200
C4873       C  0.50863064  0.41798699  0.53163619    -0.09700
C4874       C  0.51988142  0.41719549  0.50735014    -0.02700
H4875       H  0.49857687  0.44702303  0.49624725     0.04700
C4876       C  0.48892904  0.42996450  0.55428181     0.20200
H4877       H  0.52559256  0.40867959  0.51034351     0.09900
C4878       C  0.47708753  0.42912984  0.53287812    -0.16000
C4879       C  0.46567275  0.42907529  0.55658462     0.02900
C4880       C  0.46590105  0.42974904  0.60281413    -0.11400
C4881       C  0.47774910  0.43130075  0.62396304    -0.01400
C4882       C  0.48915200  0.43148211  0.60017875    -0.06600
H4883       H  0.47672541  0.42832580  0.49753493     0.05900
H4884       H  0.47819215  0.43200445  0.65933174     0.09300
Br4885     Br  0.50389872  0.40364982  0.56731491    -0.06300
Br4886     Br  0.51980817  0.45212676  0.43770138    -0.03200
Br4887     Br  0.45006860  0.42876938  0.52383803    -0.00400
Br4888     Br  0.50482419  0.43391950  0.63174919    -0.04700
C4889       C  0.93152168  0.46623938  0.61838553    -0.12100
C4890       C  0.92343620  0.47569189  0.60080983     0.03300
C4891       C  0.92411964  0.48822112  0.61657189    -0.12700
C4892       C  0.93272297  0.49158776  0.65000697     0.18200
C4893       C  0.94076488  0.48216465  0.66771874    -0.09700
C4894       C  0.94021021  0.46966868  0.65162616    -0.02700
H4895       H  0.91797707  0.49541604  0.60240456     0.04700
C4896       C  0.93326611  0.50501055  0.66538686     0.20200
H4897       H  0.94649771  0.46255463  0.66552141     0.09900
C4898       C  0.92618261  0.50863504  0.70200696    -0.16000
C4899       C  0.92615178  0.52133277  0.71629494     0.02900
C4900       C  0.93326451  0.53071010  0.69365493    -0.11400
C4901       C  0.94060844  0.52697405  0.65770668    -0.01400
C4902       C  0.94059665  0.51429227  0.64341863    -0.06600
H4903       H  0.92066425  0.50154199  0.71958331     0.05900
H4904       H  0.94621564  0.53400099  0.64014030     0.09300
Br4905     Br  0.95267195  0.48598144  0.71377070    -0.06300
Br4906     Br  0.91191685  0.47224143  0.55322002    -0.03200
Br4907     Br  0.91691317  0.52516263  0.76854142    -0.00400
Br4908     Br  0.95072593  0.51002998  0.59370092    -0.04700
C4909       C  0.97229204  0.41928864  0.64699127    -0.12100
C4910       C  0.98202219  0.42843568  0.65204377     0.03300
C4911       C  0.99394238  0.42468388  0.66852023    -0.12700
C4912       C  0.99651181  0.41177777  0.67765877     0.18200
C4913       C  0.98697698  0.40260973  0.66969986    -0.09700
C4914       C  0.97494080  0.40643940  0.65588539    -0.02700
H4915       H  0.00112172  0.43188300  0.67506647     0.04700
C4916       C  0.00844548  0.40817134  0.70058159     0.20200
H4917       H  0.96770316  0.39921461  0.65033345     0.09900
C4918       C  0.00753627  0.40230809  0.74189122    -0.16000
C4919       C  0.01828598  0.40057265  0.76834299     0.02900
C4920       C  0.03024381  0.40490781  0.75374573    -0.11400
C4921       C  0.03134631  0.40919751  0.71019025    -0.01400
C4922       C  0.02057442  0.41123747  0.68414758    -0.06600
H4923       H  0.99827557  0.39985219  0.75495164     0.05900
H4924       H  0.04048447  0.41253572  0.69829410     0.09300
Br4925     Br  0.99006696  0.38466511  0.67527374    -0.06300
Br4926     Br  0.97926282  0.44610134  0.63925502    -0.03200
Br4927     Br  0.01555433  0.39388974  0.82586943    -0.00400
Br4928     Br  0.02305532  0.41944781  0.62868906    -0.04700
C4929       C  0.02440988  0.41872355  0.41426297    -0.12100
C4930       C  0.01424489  0.42745209  0.41410691     0.03300
C4931       C  0.00246594  0.42392208  0.43221891    -0.12700
C4932       C  0.00045070  0.41167556  0.44986498     0.18200
C4933       C  0.01049178  0.40287148  0.44896580    -0.09700
C4934       C  0.02233256  0.40649928  0.43215993    -0.02700
H4935       H  0.99481434  0.43078438  0.43254440     0.04700
C4936       C  0.98789633  0.40841155  0.46955743     0.20200
H4937       H  0.02981258  0.39945560  0.43128067     0.09900
C4938       C  0.97681388  0.40869018  0.44352766    -0.16000
C4939       C  0.96471537  0.40740819  0.46241012     0.02900
C4940       C  0.96352920  0.40563953  0.50802739    -0.11400
C4941       C  0.97465659  0.40418061  0.53313050    -0.01400
C4942       C  0.98669322  0.40591502  0.51474715    -0.06600
H4943       H  0.97755035  0.41044511  0.40859834     0.05900
H4944       H  0.97399316  0.40304963  0.56842689     0.09300
Br4945     Br  0.00829467  0.38548818  0.46738332    -0.06300
Br4946     Br  0.01591209  0.44435447  0.39062713    -0.03200
Br4947     Br  0.95004463  0.40862221  0.42508718    -0.00400
Br4948     Br  0.00094859  0.40663236  0.55402860    -0.04700
C4949       C  0.93002054  0.53386670  0.18270964    -0.12100
C4950       C  0.93874952  0.52906817  0.15196777     0.03300
C4951       C  0.93839944  0.51614489  0.14066018    -0.12700
C4952       C  0.92926675  0.50785352  0.15856056     0.18200
C4953       C  0.92023915  0.51272008  0.18779254    -0.09700
C4954       C  0.92069029  0.52558289  0.19970911    -0.02700
H4955       H  0.94521048  0.51255724  0.11736418     0.04700
C4956       C  0.92916706  0.49421582  0.14590410     0.20200
H4957       H  0.91377998  0.52908196  0.22281068     0.09900
C4958       C  0.93247321  0.48487380  0.17703128    -0.16000
C4959       C  0.93243018  0.47192588  0.16599103     0.02900
C4960       C  0.92899181  0.46816922  0.12331084    -0.11400
C4961       C  0.92557200  0.47746368  0.09235554    -0.01400
C4962       C  0.92573037  0.49040685  0.10321493    -0.06600
H4963       H  0.93506946  0.48767496  0.21002395     0.05900
H4964       H  0.92294540  0.47464707  0.05939066     0.09300
Br4965     Br  0.90684692  0.50223315  0.21101545    -0.06300
Br4966     Br  0.95073220  0.53980075  0.12179780    -0.03200
Br4967     Br  0.93653792  0.45962443  0.21053542    -0.00400
Br4968     Br  0.92091281  0.50252042  0.05896861    -0.04700
C4969       C  0.92064035  0.43503817  0.96075119    -0.12100
C4970       C  0.90981456  0.42934356  0.94049258     0.03300
C4971       C  0.90977143  0.42695398  0.89535732    -0.12700
C4972       C  0.92029491  0.43003944  0.86942227     0.18200
C4973       C  0.93080856  0.43623896  0.88886091    -0.09700
C4974       C  0.93092751  0.43865423  0.93393791    -0.02700
H4975       H  0.90153160  0.42242316  0.88044290     0.04700
C4976       C  0.92002287  0.42688044  0.82206583     0.20200
H4977       H  0.93933104  0.44305183  0.94817168     0.09900
C4978       C  0.91200560  0.43372847  0.79389208    -0.16000
C4979       C  0.91176553  0.43134242  0.74880886     0.02900
C4980       C  0.91998141  0.42211033  0.73068550    -0.11400
C4981       C  0.92749101  0.41477370  0.75952732    -0.01400
C4982       C  0.92740178  0.41696803  0.80483032    -0.06600
H4983       H  0.90589508  0.44102015  0.80710895     0.05900
H4984       H  0.93364789  0.40745042  0.74682195     0.09300
Br4985     Br  0.94521908  0.44163520  0.85510614    -0.06300
Br4986     Br  0.89471009  0.42437158  0.97153029    -0.03200
Br4987     Br  0.89948673  0.44069363  0.71477582    -0.00400
Br4988     Br  0.93711521  0.40593753  0.84227549    -0.04700
C4989       C  0.91598862  0.43329242  0.45970417    -0.12100
C4990       C  0.90672346  0.42441819  0.44427903     0.03300
C4991       C  0.90475351  0.42286492  0.39921982    -0.12700
C4992       C  0.91175598  0.42997155  0.36883607     0.18200
C4993       C  0.92031872  0.43935804  0.38389761    -0.09700
C4994       C  0.92239518  0.44092333  0.42884099    -0.02700
H4995       H  0.89807401  0.41569568  0.38772390     0.04700
C4996       C  0.91094579  0.42680522  0.32175557     0.20200
H4997       H  0.92942628  0.44785049  0.43956025     0.09900
C4998       C  0.90493860  0.43520046  0.29261779    -0.16000
C4999       C  0.90582492  0.43351607  0.24728755     0.02900
C5000       C  0.91328871  0.42346745  0.23041680    -0.11400
C5001       C  0.91834037  0.41448446  0.26000959    -0.01400
C5002       C  0.91707243  0.41599581  0.30519800    -0.06600
H5003       H  0.89980299  0.44328949  0.30524469     0.05900
H5004       H  0.92375061  0.40647563  0.24819018     0.09300
Br5005     Br  0.93006946  0.44966319  0.34416263    -0.06300
Br5006     Br  0.89697836  0.41328998  0.48154881    -0.03200
Br5007     Br  0.89641873  0.44525706  0.21122576    -0.00400
Br5008     Br  0.92444582  0.40335932  0.34296511    -0.04700
C5009       C  0.96875242  0.42163152  0.17298812    -0.12100
C5010       C  0.97050153  0.41107425  0.20174043     0.03300
C5011       C  0.98249346  0.40858525  0.21982266    -0.12700
C5012       C  0.99292249  0.41662023  0.21212132     0.18200
C5013       C  0.99112255  0.42750686  0.18542000    -0.09700
C5014       C  0.97921395  0.42979688  0.16566375    -0.02700
H5015       H  0.98372729  0.40013492  0.23988847     0.04700
C5016       C  0.00553465  0.41319390  0.23162212     0.20200
H5017       H  0.97815941  0.43799899  0.14432247     0.09900
C5018       C  0.01616929  0.41178952  0.20439769    -0.16000
C5019       C  0.02827670  0.40935959  0.22211102     0.02900
C5020       C  0.02982587  0.40750402  0.26761196    -0.11400
C5021       C  0.01899843  0.40771590  0.29423284    -0.01400
C5022       C  0.00705478  0.41095401  0.27703388    -0.06600
H5023       H  0.01515703  0.41313818  0.16936076     0.05900
H5024       H  0.02005706  0.40683326  0.32940502     0.09300
Br5025     Br  0.00443768  0.43981168  0.17612324    -0.06300
Br5026     Br  0.95741271  0.39897165  0.21693914    -0.03200
Br5027     Br  0.04260694  0.40966009  0.18345700    -0.00400
Br5028     Br  0.99366414  0.41395920  0.31813385    -0.04700
C5029       C  0.01992791  0.41883865  0.90911055    -0.12100
C5030       C  0.01742161  0.40686488  0.92934772     0.03300
C5031       C  0.00534989  0.40404011  0.94534246    -0.12700
C5032       C  0.99556709  0.41296449  0.94386924     0.18200
C5033       C  0.99809155  0.42512636  0.92554007    -0.09700
C5034       C  0.01006997  0.42781550  0.90723624    -0.02700
H5035       H  0.00361052  0.39474327  0.95977501     0.04700
C5036       C  0.98342292  0.40961971  0.96605056     0.20200
H5037       H  0.01179341  0.43708097  0.89261240     0.09900
C5038       C  0.98391463  0.40540064  0.00978286    -0.16000
C5039       C  0.97280538  0.40335120  0.03372141     0.02900
C5040       C  0.96092004  0.40624755  0.01472470    -0.11400
C5041       C  0.96034703  0.40887551  0.96945047    -0.01400
C5042       C  0.97148767  0.41020110  0.94481737    -0.06600
H5043       H  0.99302949  0.40418936  0.02607380     0.05900
H5044       H  0.95124800  0.41079628  0.95389897     0.09300
Br5045     Br  0.98603812  0.43876735  0.92809207    -0.06300
Br5046     Br  0.02949296  0.39326818  0.93515901    -0.03200
Br5047     Br  0.97464197  0.39798041  0.09348661    -0.00400
Br5048     Br  0.96995398  0.41265695  0.88268666    -0.04700
C5049       C  0.84638806  0.28044439  0.60717634    -0.12100
C5050       C  0.84469524  0.27973142  0.65285305     0.03300
C5051       C  0.84259753  0.26792519  0.67310998    -0.12700
C5052       C  0.84237692  0.25673659  0.64830482     0.18200
C5053       C  0.84561403  0.25731332  0.60369429    -0.09700
C5054       C  0.84781094  0.26911635  0.58362632    -0.02700
H5055       H  0.84049771  0.26753598  0.70776557     0.04700
C5056       C  0.83810624  0.24468357  0.66877895     0.20200
H5057       H  0.84903505  0.26946270  0.54860660     0.09900
C5058       C  0.82502458  0.24236668  0.67467376    -0.16000
C5059       C  0.82069999  0.23088850  0.69331201     0.02900
C5060       C  0.82954213  0.22150336  0.70564946    -0.11400
C5061       C  0.84261375  0.22392764  0.69966996    -0.01400
C5062       C  0.84691471  0.23542134  0.68187128    -0.06600
H5063       H  0.81818314  0.24947307  0.66450968     0.05900
H5064       H  0.84957803  0.21694967  0.70993348     0.09300
Br5065     Br  0.84562432  0.24242033  0.56777595    -0.06300
Br5066     Br  0.84385195  0.29485591  0.68753950    -0.03200
Br5067     Br  0.80274205  0.22825214  0.69934774    -0.00400
Br5068     Br  0.86491162  0.23825332  0.67712657    -0.04700
C5069       C  0.83069495  0.27188245  0.46479793    -0.12100
C5070       C  0.82136614  0.26284254  0.45333327     0.03300
C5071       C  0.82503894  0.25092856  0.43741121    -0.12700
C5072       C  0.83797427  0.24766167  0.43400770     0.18200
C5073       C  0.84730396  0.25672170  0.44571940    -0.09700
C5074       C  0.84361477  0.26876775  0.46013390    -0.02700
H5075       H  0.81774931  0.24417969  0.42736094     0.04700
C5076       C  0.84134430  0.23512164  0.41515147     0.20200
H5077       H  0.85091236  0.27560200  0.46943231     0.09900
C5078       C  0.84752728  0.23472763  0.37455483    -0.16000
C5079       C  0.84761871  0.22353116  0.34967974     0.02900
C5080       C  0.84140153  0.21246907  0.36576478    -0.11400
C5081       C  0.83712457  0.21245108  0.40930533    -0.01400
C5082       C  0.83678703  0.22366526  0.43354487    -0.06600
H5083       H  0.85120075  0.24345039  0.36021016     0.05900
H5084       H  0.83266590  0.20399055  0.42292562     0.09300
Br5085     Br  0.86512925  0.25284935  0.44517900    -0.06300
Br5086     Br  0.80359310  0.26662829  0.45663273    -0.03200
Br5087     Br  0.85444072  0.22484671  0.29160595    -0.00400
Br5088     Br  0.82874028  0.22296112  0.48964111    -0.04700
C5089       C  0.78153001  0.31071541  0.51510169    -0.12100
C5090       C  0.77296424  0.30288600  0.53862781     0.03300
C5091       C  0.75979627  0.30378478  0.53082609    -0.12700
C5092       C  0.75489166  0.31218367  0.49899005     0.18200
C5093       C  0.76350359  0.31980319  0.47493649    -0.09700
C5094       C  0.77662312  0.31916140  0.48355444    -0.02700
H5095       H  0.75333373  0.29792114  0.54982492     0.04700
C5096       C  0.74084404  0.31286843  0.49109061     0.20200
H5097       H  0.78306775  0.32517132  0.46498467     0.09900
C5098       C  0.73432257  0.32426521  0.49916018    -0.16000
C5099       C  0.72123962  0.32542705  0.48996382     0.02900
C5100       C  0.71435372  0.31503223  0.47206605    -0.11400
C5101       C  0.72083036  0.30349548  0.46575071    -0.01400
C5102       C  0.73386921  0.30235298  0.47501873    -0.06600
H5103       H  0.73947001  0.33233805  0.51258671     0.05900
H5104       H  0.71580825  0.29535613  0.45223488     0.09300
Br5105     Br  0.75789259  0.33078895  0.42838887    -0.06300
Br5106     Br  0.77864102  0.29134164  0.58350253    -0.03200
Br5107     Br  0.71329605  0.34123706  0.50466119    -0.00400
Br5108     Br  0.74182187  0.28637794  0.46277926    -0.04700
C5109       C  0.85647215  0.34181051  0.53961222    -0.12100
C5110       C  0.86814139  0.33950439  0.56181054     0.03300
C5111       C  0.87716167  0.34937329  0.56677088    -0.12700
C5112       C  0.87493175  0.36162357  0.54984095     0.18200
C5113       C  0.86354444  0.36382448  0.52646498    -0.09700
C5114       C  0.85444156  0.35406853  0.52197461    -0.02700
H5115       H  0.88590745  0.34753061  0.58464877     0.04700
C5116       C  0.88439810  0.37203952  0.55805304     0.20200
H5117       H  0.84576600  0.35607476  0.50391558     0.09900
C5118       C  0.89610530  0.37210362  0.53612661    -0.16000
C5119       C  0.90526617  0.38169753  0.54379435     0.02900
C5120       C  0.90291622  0.39139553  0.57473615    -0.11400
C5121       C  0.89108636  0.39136866  0.59606393    -0.01400
C5122       C  0.88192940  0.38185421  0.58807411    -0.06600
H5123       H  0.89805751  0.36473668  0.51245123     0.05900
H5124       H  0.88899598  0.39869214  0.61975799     0.09300
Br5125     Br  0.86017274  0.37992811  0.49891443    -0.06300
Br5126     Br  0.87224484  0.32335889  0.58795795    -0.03200
Br5127     Br  0.92033931  0.38150817  0.50860357    -0.00400
Br5128     Br  0.86629837  0.38244689  0.62007603    -0.04700
C5129       C  0.82111542  0.22474453  0.22307997    -0.12100
C5130       C  0.82264014  0.23531025  0.25118530     0.03300
C5131       C  0.82694898  0.24693187  0.23435504    -0.12700
C5132       C  0.82829720  0.24889678  0.18914125     0.18200
C5133       C  0.82543768  0.23868497  0.16058296    -0.09700
C5134       C  0.82238574  0.22665536  0.17777521    -0.02700
H5135       H  0.82912966  0.25456722  0.25695583     0.04700
C5136       C  0.83233719  0.26169039  0.17269741     0.20200
H5137       H  0.82094568  0.21874498  0.15558340     0.09900
C5138       C  0.84226193  0.26280202  0.14207827    -0.16000
C5139       C  0.84480292  0.27441981  0.12068650     0.02900
C5140       C  0.83776289  0.28532263  0.13156942    -0.11400
C5141       C  0.82968808  0.28457878  0.16823648    -0.01400
C5142       C  0.82632009  0.27290656  0.18676595    -0.06600
H5143       H  0.84753809  0.25442275  0.13278359     0.05900
H5144       H  0.82443858  0.29289040  0.17850608     0.09300
Br5145     Br  0.82491056  0.24064061  0.09799977    -0.06300
Br5146     Br  0.81915166  0.23477864  0.31282738    -0.03200
Br5147     Br  0.85725501  0.27449467  0.07526672    -0.00400
Br5148     Br  0.81186620  0.27297335  0.22514844    -0.04700
C5149       C  0.82666544  0.27500879  0.97142795    -0.12100
C5150       C  0.83862582  0.27169171  0.95342348     0.03300
C5151       C  0.84019816  0.26003625  0.93229323    -0.12700
C5152       C  0.83012671  0.25138116  0.92783161     0.18200
C5153       C  0.81819704  0.25451651  0.94573356    -0.09700
C5154       C  0.81657762  0.26617963  0.96768874    -0.02700
H5155       H  0.84942504  0.25768470  0.91906628     0.04700
C5156       C  0.83246244  0.23925768  0.90399578     0.20200
H5157       H  0.80734080  0.26846850  0.98095943     0.09900
C5158       C  0.83304985  0.22768771  0.92731696    -0.16000
C5159       C  0.83518325  0.21615763  0.90534867     0.02900
C5160       C  0.83710446  0.21604912  0.85965808    -0.11400
C5161       C  0.83723079  0.22772359  0.83681385    -0.01400
C5162       C  0.83475250  0.23920383  0.85855367    -0.06600
H5163       H  0.83156366  0.22759111  0.96180590     0.05900
H5164       H  0.83804881  0.22780934  0.80221574     0.09300
Br5165     Br  0.80374859  0.24343837  0.93895682    -0.06300
Br5166     Br  0.85364227  0.28217904  0.95752662    -0.03200
Br5167     Br  0.83477011  0.20064073  0.93882526    -0.00400
Br5168     Br  0.83321317  0.25439323  0.82370620    -0.04700
C5169       C  0.71359322  0.31195700  0.96055261    -0.12100
C5170       C  0.72215799  0.30236000  0.94815369     0.03300
C5171       C  0.73496295  0.30333914  0.96052091    -0.12700
C5172       C  0.73937122  0.31364865  0.98557572     0.18200
C5173       C  0.73074610  0.32293176  0.99945761    -0.09700
C5174       C  0.71799759  0.32205894  0.98676516    -0.02700
H5175       H  0.74159674  0.29616845  0.94972376     0.04700
C5176       C  0.75308389  0.31474372  0.99537362     0.20200
H5177       H  0.71148979  0.32939178  0.99720982     0.09900
C5178       C  0.76022308  0.32455638  0.97579312    -0.16000
C5179       C  0.77339819  0.32539631  0.98235842     0.02900
C5180       C  0.77958973  0.31614594  0.00826356    -0.11400
C5181       C  0.77236800  0.30643700  0.02813919    -0.01400
C5182       C  0.75921895  0.30574659  0.02221145    -0.06600
H5183       H  0.75554054  0.33146441  0.95482584     0.05900
H5184       H  0.77695602  0.29945150  0.04906982     0.09300
Br5185     Br  0.73587892  0.33684592  0.03620969    -0.06300
Br5186     Br  0.71728593  0.28825770  0.91181821    -0.03200
Br5187     Br  0.78247354  0.33885327  0.95319612    -0.00400
Br5188     Br  0.74998295  0.29262668  0.05261255    -0.04700
C5189       C  0.82623952  0.32637084  0.89662174    -0.12100
C5190       C  0.82047731  0.33669285  0.87441897     0.03300
C5191       C  0.81844452  0.33608593  0.82907152    -0.12700
C5192       C  0.82180263  0.32520329  0.80547476     0.18200
C5193       C  0.82777490  0.31503136  0.82757159    -0.09700
C5194       C  0.83004893  0.31573660  0.87259573    -0.02700
H5195       H  0.81403523  0.34404122  0.81224148     0.04700
C5196       C  0.81932407  0.32473422  0.75772726     0.20200
H5197       H  0.83431070  0.30765976  0.88924090     0.09900
C5198       C  0.82697329  0.33200080  0.72966064    -0.16000
C5199       C  0.82566930  0.33107702  0.68411829     0.02900
C5200       C  0.81643241  0.32271423  0.66574267    -0.11400
C5201       C  0.80843550  0.31583972  0.69430354    -0.01400
C5202       C  0.80975477  0.31686556  0.73980839    -0.06600
H5203       H  0.83430739  0.33813643  0.74333210     0.05900
H5204       H  0.80122636  0.30945710  0.68124219     0.09300
Br5205     Br  0.83280942  0.29982805  0.79815510    -0.06300
Br5206     Br  0.81544092  0.35191594  0.90400629    -0.03200
Br5207     Br  0.83757540  0.34083589  0.64995512    -0.00400
Br5208     Br  0.79829543  0.30735255  0.77632222    -0.04700
C5209       C  0.81144367  0.32824352  0.16381639    -0.12100
C5210       C  0.81937234  0.33777079  0.18290651     0.03300
C5211       C  0.82126715  0.33798849  0.22836587    -0.12700
C5212       C  0.81548410  0.32891422  0.25550040     0.18200
C5213       C  0.80710616  0.31990219  0.23718575    -0.09700
C5214       C  0.80510741  0.31964612  0.19190676    -0.02700
H5215       H  0.82767021  0.34499971  0.24253030     0.04700
C5216       C  0.81889797  0.32841197  0.30245177     0.20200
H5217       H  0.79897933  0.31226647  0.17858866     0.09900
C5218       C  0.81216491  0.33578293  0.33234670    -0.16000
C5219       C  0.81459166  0.33479113  0.37739047     0.02900
C5220       C  0.82396630  0.32621647  0.39316010    -0.11400
C5221       C  0.83102307  0.31924327  0.36263652    -0.01400
C5222       C  0.82854027  0.32026787  0.31773241    -0.06600
H5223       H  0.80483784  0.34218580  0.32058729     0.05900
H5224       H  0.83822514  0.31260717  0.37371726     0.09300
Br5225     Br  0.79871776  0.30733933  0.27276525    -0.06300
Br5226     Br  0.82859966  0.35040666  0.14991687    -0.03200
Br5227     Br  0.80485377  0.34563339  0.41480806    -0.00400
Br5228     Br  0.83826499  0.31006471  0.27835355    -0.04700
C5229       C  0.85484183  0.34414773  0.04900452    -0.12100
C5230       C  0.85680263  0.35424036  0.01892856     0.03300
C5231       C  0.86637944  0.36328651  0.02657323    -0.12700
C5232       C  0.87431667  0.36244844  0.06350539     0.18200
C5233       C  0.87263584  0.35220813  0.09300997    -0.09700
C5234       C  0.86298413  0.34313678  0.08554758    -0.02700
H5235       H  0.86768102  0.37103093  0.00341717     0.04700
C5236       C  0.88402858  0.37257289  0.07083445     0.20200
H5237       H  0.86172993  0.33537585  0.10865197     0.09900
C5238       C  0.88230946  0.38131288  0.10480444    -0.16000
C5239       C  0.89081272  0.39149050  0.11096746     0.02900
C5240       C  0.90126307  0.39313140  0.08254428    -0.11400
C5241       C  0.90313684  0.38420562  0.04918306    -0.01400
C5242       C  0.89458398  0.37405355  0.04298721    -0.06600
H5243       H  0.87426633  0.38023308  0.12654529     0.05900
H5244       H  0.91120878  0.38521386  0.02753035     0.09300
Br5245     Br  0.88351064  0.35007745  0.14317038    -0.06300
Br5246     Br  0.84735470  0.35574234  0.96511244    -0.03200
Br5247     Br  0.88810518  0.40230604  0.16053852    -0.00400
Br5248     Br  0.89781805  0.36229432  0.99660658    -0.04700
loop_ 
_geom_bond_atom_site_label_1 
_geom_bond_atom_site_label_2 
_geom_bond_distance 
_geom_bond_site_symmetry_2 
_ccdc_geom_bond_type 
O1           C16   1.277       .  A
O1           Al9   1.950   1_556  S
C2           O12   1.272       .  A
C2            O3   1.262       .  A
C2         C5209   1.492       .  S
O3           Al5   1.893       .  S
O4            C6   1.262       .  A
O4           Al5   1.921       .  S
Al5          O13   1.940       .  S
Al5          O15   1.876   1_554  S
Al5          O14   1.777       .  S
C6           O19   1.262       .  A
C6         C5229   1.483       .  S
O7           C17   1.273       .  A
O7           Al9   1.982       .  S
O8           C21   1.271   1_554  A
O8          Al18   1.971       .  S
Al9          O22   1.879   1_554  S
Al9          O19   1.914       .  S
Al9          O14   1.769       .  S
O10          C17   1.249       .  A
O10         Al18   1.838       .  S
O11          C20   1.259       .  A
O11         Al18   1.878       .  S
O12         Al18   1.942       .  S
O13          C20   1.267       .  A
O14         Al18   1.761       .  S
O15          C16   1.264       .  A
C16        C5189   1.475       .  S
C17        C5140   1.490       .  S
C20        C5180   1.472       .  S
C21          O22   1.255       .  A
C21        C5149   1.497       .  S
O23          C38   1.273       .  A
O23         Al31   1.942       .  S
C24          O34   1.268       .  A
C24          O25   1.262       .  A
C24        C5200   1.489       .  S
O25         Al27   1.898       .  S
O26          C28   1.266       .  A
O26         Al27   1.936       .  S
Al27         O35   1.940       .  S
Al27         O37   1.882       .  S
Al27         O36   1.773       .  S
C28          O41   1.261       .  A
C28        C5109   1.499       .  S
O29          C39   1.268       .  A
O29         Al31   1.951       .  S
O30          C43   1.268       .  A
O30         Al40   1.946       .  S
Al31         O44   1.883       .  S
Al31         O41   1.910       .  S
Al31         O36   1.782       .  S
O32          C39   1.254       .  A
O32         Al40   1.866       .  S
O33          C42   1.263       .  A
O33         Al40   1.905       .  S
O34         Al40   1.932       .  S
O35          C42   1.267       .  A
O36         Al40   1.774       .  S
O37          C38   1.262       .  A
C38        C5220   1.486       .  S
C39        C5049   1.472       .  S
C42        C5089   1.486       .  S
C43          O44   1.258       .  A
C43        C5069   1.477       .  S
O45          C60   1.275       .  A
O45         Al53   1.949       .  S
C46          O56   1.272       .  A
C46          O47   1.263       .  A
C46        C4969   1.495   1_554  S
O47         Al49   1.893       .  S
O48          C50   1.263       .  A
O48         Al49   1.929       .  S
Al49         O57   1.943       .  S
Al49         O59   1.883       .  S
Al49         O58   1.774       .  S
C50          O63   1.259       .  A
C50        C5240   1.482       .  S
O51          C61   1.271       .  A
O51         Al53   1.959       .  S
O52          C65   1.269       .  A
O52         Al62   1.954       .  S
Al53         O66   1.883       .  S
Al53         O63   1.903       .  S
Al53         O58   1.768       .  S
O54          C61   1.253       .  A
O54         Al62   1.861       .  S
O55          C64   1.260       .  A
O55         Al62   1.897       .  S
O56         Al62   1.945       .  S
O57          C64   1.267       .  A
O58         Al62   1.770       .  S
O59          C60   1.263       .  A
C60        C5000   1.489       .  S
C61        C5040   1.475       .  S
C64        C4960   1.473       .  S
C65          O66   1.254       .  A
C65        C5009   1.497       .  S
O67          C82   1.273       .  A
O67         Al75   1.957       .  S
C68          O78   1.271       .  A
C68          O69   1.258       .  A
C68        C4989   1.490       .  S
O69         Al71   1.881       .  S
O70          C72   1.268       .  A
O70         Al71   1.942       .  S
Al71         O79   1.945       .  S
Al71         O81   1.881       .  S
Al71         O80   1.774       .  S
C72          O85   1.263       .  A
C72        C5120   1.497       .  S
O73          C83   1.270       .  A
O73         Al75   1.957       .  S
O74          C87   1.267       .  A
O74         Al84   1.944       .  S
Al75         O88   1.879       .  S
Al75         O85   1.911       .  S
Al75         O80   1.775       .  S
O76          C83   1.257       .  A
O76         Al84   1.888       .  S
O77          C86   1.260       .  A
O77         Al84   1.900       .  S
O78         Al84   1.941       .  S
O79          C86   1.268       .  A
O80         Al84   1.774       .  S
O81          C82   1.260       .  A
C82        C4980   1.493       .  S
C83        C4940   1.484       .  S
C86        C4889   1.487       .  S
C87          O88   1.259       .  A
C87        C4909   1.473       .  S
O89         C104   1.265       .  A
O89         Al97   1.912       .  S
C90         O100   1.261       .  A
C90          O91   1.265       .  A
C90        C4809   1.468       .  S
O91         Al93   1.924       .  S
O92          C94   1.257       .  A
O92         Al93   1.892       .  S
Al93        O101   1.888       .  S
Al93        O103   1.931       .  S
Al93        O102   1.781       .  S
C94         O107   1.262       .  A
C94        C4849   1.484       .  S
O95         C105   1.265       .  A
O95         Al97   1.918       .  S
O96         C109   1.265       .  A
O96        Al106   1.912       .  S
Al97        O110   1.910       .  S
Al97        O107   1.914       .  S
Al97        O102   1.784       .  S
O98         C105   1.264       .  A
O98        Al106   1.925       .  S
O99         C108   1.263       .  A
O99        Al106   1.932       .  S
O100       Al106   1.898       .  S
O101        C108   1.257       .  A
O102       Al106   1.788       .  S
O103        C104   1.265       .  A
C104       C4869   1.498       .  S
C105       C4829   1.487       .  S
C108       C4769   1.488       .  S
C109        O110   1.264       .  A
C109       C4789   1.480       .  S
O111        C126   1.275       .  A
O111       Al119   1.948       .  S
C112        O122   1.272       .  A
C112        O113   1.265       .  A
C112       C4820   1.492   1_556  S
O113       Al115   1.898       .  S
O114        C116   1.256       .  A
O114       Al115   1.899       .  S
Al115       O123   1.928       .  S
Al115       O125   1.895       .  S
Al115       O124   1.778       .  S
C116        O129   1.263       .  A
C116       C4709   1.486       .  S
O117        C127   1.271       .  A
O117       Al119   1.960       .  S
O118        C131   1.265       .  A
O118       Al128   1.933       .  S
Al119       O132   1.871       .  S
Al119       O129   1.917       .  S
Al119       O124   1.776       .  S
O120        C127   1.252       .  A
O120       Al128   1.864       .  S
O121        C130   1.257       .  A
O121       Al128   1.896       .  S
O122       Al128   1.934       .  S
O123        C130   1.262       .  A
O124       Al128   1.769       .  S
O125        C126   1.270       .  A
C126       C4800   1.484       .  S
C127       C4760   1.478   1_556  S
C130       C4689   1.471       .  S
C131        O132   1.253       .  A
C131       C4729   1.474       .  S
O133        C148   1.271       .  A
O133       Al141   1.943       .  S
C134        O144   1.267       .  A
C134        O135   1.265       .  A
C134       C4629   1.491       .  S
O135       Al137   1.900       .  S
O136        C138   1.266       .  A
O136       Al137   1.938       .  S
Al137       O145   1.949       .  S
Al137       O147   1.890       .  S
Al137       O146   1.777       .  S
C138        O151   1.261       .  A
C138       C4840   1.495       .  S
O139        C149   1.268       .  A
O139       Al141   1.950       .  S
O140        C153   1.268       .  A
O140       Al150   1.938       .  S
Al141       O154   1.888       .  S
Al141       O151   1.910       .  S
Al141       O146   1.776       .  S
O142        C149   1.255       .  A
O142       Al150   1.875       .  S
O143        C152   1.261       .  A
O143       Al150   1.899       .  S
O144       Al150   1.930       .  S
O145        C152   1.268       .  A
O146       Al150   1.770       .  S
O147        C148   1.266       .  A
C148       C4609   1.495       .  S
C149       C4649   1.478       .  S
C152       C5100   1.496       .  S
C153        O154   1.257       .  A
C153       C4669   1.489       .  S
O155        C170   1.272       .  A
O155       Al163   1.947   1_554  S
C156        O166   1.270       .  A
C156        O157   1.266       .  A
C156       C4620   1.485       .  S
O157       Al159   1.897       .  S
O158        C160   1.260       .  A
O158       Al159   1.915       .  S
Al159       O167   1.910       .  S
Al159       O169   1.890   1_556  S
Al159       O168   1.772       .  S
C160        O173   1.259       .  A
C160       C4720   1.473       .  S
O161        C171   1.270       .  A
O161       Al163   1.945       .  S
O162        C175   1.268       .  A
O162       Al172   1.956       .  S
Al163       O176   1.870       .  S
Al163       O173   1.899       .  S
Al163       O168   1.768       .  S
O164        C171   1.255       .  A
O164       Al172   1.873       .  S
O165        C174   1.262       .  A
O165       Al172   1.901       .  S
O166       Al172   1.937       .  S
O167        C174   1.263       .  A
O168       Al172   1.771       .  S
O169        C170   1.265       .  A
C170       C4640   1.496       .  S
C171       C4580   1.474       .  S
C174       C5169   1.473       .  S
C175        O176   1.255       .  A
C175       C4589   1.480       .  S
O177        C192   1.261       .  A
O177       Al185   1.899       .  S
C178        O188   1.266       .  A
C178        O179   1.269       .  A
C178       C4489   1.491       .  S
O179       Al181   1.916       .  S
O180        C182   1.257       .  A
O180       Al181   1.888       .  S
Al181       O189   1.895       .  S
Al181       O191   1.925       .  S
Al181       O190   1.777       .  S
C182        O195   1.260       .  A
C182       C4549   1.485       .  S
O183        C193   1.262       .  A
O183       Al185   1.910       .  S
O184        C197   1.268       .  A
O184       Al194   1.921       .  S
Al185       O198   1.889       .  S
Al185       O195   1.910       .  S
Al185       O190   1.783       .  S
O186        C193   1.262       .  A
O186       Al194   1.921       .  S
O187        C196   1.259       .  A
O187       Al194   1.924       .  S
O188       Al194   1.908       .  S
O189        C196   1.257       .  A
O190       Al194   1.792       .  S
O191        C192   1.263       .  A
C192       C4540   1.497       .  S
C193       C4509   1.475       .  S
C196       C4449   1.486       .  S
C197        O198   1.263       .  A
C197       C4469   1.478       .  S
O199        C214   1.271       .  A
O199       Al207   1.940       .  S
C200        O210   1.268       .  A
C200        O201   1.262       .  A
C200       C4500   1.465       .  S
O201       Al203   1.889       .  S
O202        C204   1.265       .  A
O202       Al203   1.929       .  S
Al203       O211   1.937       .  S
Al203       O213   1.883       .  S
Al203       O212   1.774       .  S
C204        O217   1.264       .  A
C204       C4389   1.487       .  S
O205        C215   1.270       .  A
O205       Al207   1.964       .  S
O206        C219   1.267       .  A
O206       Al216   1.933       .  S
Al207       O220   1.885       .  S
Al207       O217   1.907       .  S
Al207       O212   1.780       .  S
O208        C215   1.254       .  A
O208       Al216   1.869       .  S
O209        C218   1.259       .  A
O209       Al216   1.888       .  S
O210       Al216   1.929       .  S
O211        C218   1.265       .  A
O212       Al216   1.766       .  S
O213        C214   1.262       .  A
C214       C4480   1.469       .  S
C215       C4409   1.489       .  S
C218       C4369   1.483       .  S
C219        O220   1.258       .  A
C219       C4429   1.480       .  S
O221        C236   1.271       .  A
O221       Al229   1.945       .  S
C222        O232   1.271       .  A
C222        O223   1.259       .  A
C222       C4320   1.492       .  S
O223       Al225   1.881       .  S
O224        C226   1.266       .  A
O224       Al225   1.930       .  S
Al225       O233   1.938       .  S
Al225       O235   1.881       .  S
Al225       O234   1.772       .  S
C226        O239   1.259       .  A
C226       C4520   1.490       .  S
O227        C237   1.268       .  A
O227       Al229   1.951       .  S
O228        C241   1.272       .  A
O228       Al238   1.961       .  S
Al229       O242   1.883       .  S
Al229       O239   1.898       .  S
Al229       O234   1.770       .  S
O230        C237   1.253       .  A
O230       Al238   1.870       .  S
O231        C240   1.261       .  A
O231       Al238   1.897       .  S
O232       Al238   1.943       .  S
O233        C240   1.268       .  A
O234       Al238   1.767       .  S
O235        C236   1.264       .  A
C236       C4289   1.494       .  S
C237       C4360   1.469       .  S
C240       C4949   1.486       .  S
C241        O242   1.257       .  A
C241       C4329   1.493       .  S
O243        C258   1.274       .  A
O243       Al251   1.945       .  S
C244        O254   1.272       .  A
C244        O245   1.263       .  A
C244       C4300   1.495       .  S
O245       Al247   1.884       .  S
O246        C248   1.265       .  A
O246       Al247   1.939       .  S
Al247       O255   1.946       .  S
Al247       O257   1.881       .  S
Al247       O256   1.774       .  S
C248        O261   1.259       .  A
C248       C4400   1.480       .  S
O249        C259   1.268       .  A
O249       Al251   1.950       .  S
O250        C263   1.273       .  A
O250       Al260   1.971       .  S
Al251       O264   1.874       .  S
Al251       O261   1.902       .  S
Al251       O256   1.769       .  S
O252        C259   1.252       .  A
O252       Al260   1.861       .  S
O253        C262   1.261       .  A
O253       Al260   1.903       .  S
O254       Al260   1.950       .  S
O255        C262   1.267       .  A
O256       Al260   1.767       .  S
O257        C258   1.262       .  A
C258       C4309   1.490       .  S
C259       C4269   1.469       .  S
C262       C4900   1.487       .  S
C263        O264   1.254       .  A
C263       C4249   1.500       .  S
O265        C280   1.260       .  A
O265       Al273   1.890       .  S
C266        O276   1.263       .  A
C266        O267   1.264       .  A
C266       C4169   1.457       .  S
O267       Al269   1.909       .  S
O268        C270   1.262       .  A
O268       Al269   1.897       .  S
Al269       O277   1.908       .  S
Al269       O279   1.903       .  S
Al269       O278   1.779       .  S
C270        O283   1.260       .  A
C270       C4229   1.495       .  S
O271        C281   1.262       .  A
O271       Al273   1.908       .  S
O272        C285   1.263       .  A
O272       Al282   1.901       .  S
Al273       O286   1.906       .  S
Al273       O283   1.915       .  S
Al273       O278   1.782       .  S
O274        C281   1.261       .  A
O274       Al282   1.913       .  S
O275        C284   1.260       .  A
O275       Al282   1.917       .  S
O276       Al282   1.894       .  S
O277        C284   1.259       .  A
O278       Al282   1.787       .  S
O279        C280   1.259       .  A
C280       C4209   1.480       .  S
C281       C4189   1.483       .  S
C284       C4460   1.483       .  S
C285        O286   1.265       .  A
C285       C4149   1.465       .  S
O287        C302   1.274       .  A
O287       Al295   1.947       .  S
C288        O298   1.265       .  A
C288        O289   1.263       .  A
C288       C4180   1.477       .  S
O289       Al291   1.892       .  S
O290        C292   1.266       .  A
O290       Al291   1.942       .  S
Al291       O299   1.952       .  S
Al291       O301   1.872       .  S
Al291       O300   1.777       .  S
C292        O305   1.261       .  A
C292       C4089   1.501       .  S
O293        C303   1.273       .  A
O293       Al295   1.969       .  S
O294        C307   1.265       .  A
O294       Al304   1.938       .  S
Al295       O308   1.887       .  S
Al295       O305   1.899       .  S
Al295       O300   1.770       .  S
O296        C303   1.257       .  A
O296       Al304   1.872       .  S
O297        C306   1.260       .  A
O297       Al304   1.890       .  S
O298       Al304   1.923       .  S
O299        C306   1.272       .  A
O300       Al304   1.769       .  S
O301        C302   1.258       .  A
C302       C4160   1.486       .  S
C303       C4109   1.487       .  S
C306       C4380   1.491       .  S
C307        O308   1.255       .  A
C307       C4140   1.488       .  S
O309        C324   1.275       .  A
O309       Al317   1.949       .  S
C310        O320   1.270       .  A
C310        O311   1.263       .  A
C310       C4080   1.479       .  S
O311       Al313   1.891       .  S
O312        C314   1.260       .  A
O312       Al313   1.913       .  S
Al313       O321   1.932       .  S
Al313       O323   1.878       .  S
Al313       O322   1.774       .  S
C314        O327   1.262       .  A
C314       C4200   1.485       .  S
O315        C325   1.271       .  A
O315       Al317   1.958       .  S
O316        C329   1.264       .  A
O316       Al326   1.925       .  S
Al317       O330   1.872       .  S
Al317       O327   1.913       .  S
Al317       O322   1.774       .  S
O318        C325   1.258       .  A
O318       Al326   1.886       .  S
O319        C328   1.261       .  A
O319       Al326   1.905       .  S
O320       Al326   1.927       .  S
O321        C328   1.264       .  A
O322       Al326   1.770       .  S
O323        C324   1.262       .  A
C324       C4049   1.491       .  S
C325       C4040   1.480       .  S
C328       C4780   1.480       .  S
C329        O330   1.255       .  A
C329       C4020   1.463       .  S
O331        C346   1.277       .  A
O331       Al339   1.953       .  S
C332        O342   1.273       .  A
C332        O333   1.262       .  A
C332       C4060   1.490       .  S
O333       Al335   1.886       .  S
O334        C336   1.258       .  A
O334       Al335   1.915       .  S
Al335       O343   1.920       .  S
Al335       O345   1.865       .  S
Al335       O344   1.776       .  S
C336        O349   1.261       .  A
C336       C4100   1.484       .  S
O337        C347   1.270       .  A
O337       Al339   1.955       .  S
O338        C351   1.267       .  A
O338       Al348   1.951       .  S
Al339       O352   1.882       .  S
Al339       O349   1.923       .  S
Al339       O344   1.776       .  S
O340        C347   1.253       .  A
O340       Al348   1.847       .  S
O341        C350   1.262       .  A
O341       Al348   1.911       .  S
O342       Al348   1.943       .  S
O343        C350   1.264       .  A
O344       Al348   1.771       .  S
O345        C346   1.262       .  A
C346       C4069   1.477       .  S
C347       C4000   1.475       .  S
C350       C4700   1.493       .  S
C351        O352   1.258       .  A
C351       C3969   1.490       .  S
O353        C368   1.259       .  A
O353       Al361   1.888       .  S
C354        O364   1.263       .  A
C354        O355   1.270       .  A
C354       C3940   1.489       .  S
O355       Al357   1.933       .  S
O356        C358   1.253       .  A
O356       Al357   1.870       .  S
Al357       O365   1.897       .  S
Al357       O367   1.948       .  S
Al357       O366   1.767       .  S
C358        O371   1.272       .  A
C358       C5020   1.476       .  S
O359        C369   1.266       .  A
O359       Al361   1.929       .  S
O360        C373   1.263       .  A
O360       Al370   1.882       .  S
Al361       O374   1.949       .  S
Al361       O371   1.965       .  S
Al361       O366   1.774       .  S
O362        C369   1.264       .  A
O362       Al370   1.930       .  S
O363        C372   1.267       .  A
O363       Al370   1.941       .  S
O364       Al370   1.894       .  S
O365        C372   1.261       .  A
O366       Al370   1.773       .  S
O367        C368   1.267       .  A
C368       C4929   1.490       .  S
C369       C3960   1.499       .  S
C372       C3889   1.480       .  S
C373        O374   1.275       .  A
C373       C3920   1.488       .  S
O375        C390   1.252       .  A
O375       Al383   1.874       .  S
C376        O386   1.264       .  A
C376        O377   1.272       .  A
C376       C3909   1.484       .  S
O377       Al379   1.947       .  S
O378        C380   1.253       .  A
O378       Al379   1.847       .  S
Al379       O387   1.897       .  S
Al379       O389   1.960       .  S
Al379       O388   1.768       .  S
C380        O393   1.270       .  A
C380       C4920   1.474       .  S
O381        C391   1.257       .  A
O381       Al383   1.897       .  S
O382        C395   1.265       .  A
O382       Al392   1.881       .  S
Al383       O396   1.946       .  S
Al383       O393   1.957       .  S
Al383       O388   1.768       .  S
O384        C391   1.263       .  A
O384       Al392   1.919       .  S
O385        C394   1.264       .  A
O385       Al392   1.923       .  S
O386       Al392   1.887       .  S
O387        C394   1.261       .  A
O388       Al392   1.773       .  S
O389        C390   1.270       .  A
C390       C5029   1.490       .  S
C391       C3880   1.491       .  S
C394       C3849   1.478       .  S
C395        O396   1.273       .  A
C395       C3929   1.492       .  S
O397        C412   1.265       .  A
O397       Al405   1.911       .  S
C398        O408   1.266       .  A
C398        O399   1.266       .  A
C398       C3800   1.481       .  S
O399       Al401   1.908       .  S
O400        C402   1.268       .  A
O400       Al401   1.937       .  S
Al401       O409   1.944       .  S
Al401       O411   1.921       .  S
Al401       O410   1.778       .  S
C402        O415   1.266       .  A
C402       C3949   1.500       .  S
O403        C413   1.263       .  A
O403       Al405   1.926       .  S
O404        C417   1.264       .  A
O404       Al414   1.916       .  S
Al405       O418   1.895       .  S
Al405       O415   1.919       .  S
Al405       O410   1.779       .  S
O406        C413   1.256       .  A
O406       Al414   1.886       .  S
O407        C416   1.256       .  A
O407       Al414   1.889       .  S
O408       Al414   1.916       .  S
O409        C416   1.266       .  A
O410       Al414   1.772       .  S
O411        C412   1.269       .  A
C412       C3769   1.475       .  S
C413       C3829   1.471       .  S
C416       C3749   1.482       .  S
C417        O418   1.260       .  A
C417       C3820   1.482       .  S
O419        C434   1.256       .  A
O419       Al427   1.877       .  S
C420        O430   1.266       .  A
C420        O421   1.270       .  A
C420       C3789   1.483       .  S
O421       Al423   1.923       .  S
O422        C424   1.258       .  A
O422       Al423   1.891       .  S
Al423       O431   1.919       .  S
Al423       O433   1.935       .  S
Al423       O432   1.782       .  S
C424        O437   1.265       .  A
C424       C3720   1.488       .  S
O425        C435   1.257       .  A
O425       Al427   1.902       .  S
O426        C439   1.265       .  A
O426       Al436   1.895       .  S
Al427       O440   1.942       .  S
Al427       O437   1.927       .  S
Al427       O432   1.778       .  S
O428        C435   1.259       .  A
O428       Al436   1.914       .  S
O429        C438   1.257       .  A
O429       Al436   1.899       .  S
O430       Al436   1.902       .  S
O431        C438   1.263       .  A
O432       Al436   1.783       .  S
O433        C434   1.266       .  A
C434       C3740   1.481       .  S
C435       C3869   1.478       .  S
C438       C3689   1.490       .  S
C439        O440   1.271       .  A
C439       C3780   1.488       .  S
O441        C456   1.261       .  A
O441       Al449   1.892       .  S
C442        O452   1.268       .  A
C442        O443   1.263       .  A
C442       C3620   1.488       .  S
O443       Al445   1.909       .  S
O444        C446   1.256       .  A
O444       Al445   1.880       .  S
Al445       O453   1.879       .  S
Al445       O455   1.900       .  S
Al445       O454   1.768       .  S
C446        O459   1.265       .  A
C446       C3649   1.480       .  S
O447        C457   1.264       .  A
O447       Al449   1.909       .  S
O448        C461   1.268       .  A
O448       Al458   1.920       .  S
Al449       O462   1.917       .  S
Al449       O459   1.930       .  S
Al449       O454   1.774       .  S
O450        C457   1.265       .  A
O450       Al458   1.923       .  S
O451        C460   1.266       .  A
O451       Al458   1.946       .  S
O452       Al458   1.922       .  S
O453        C460   1.255       .  A
O454       Al458   1.775       .  S
O455        C456   1.261       .  A
C456       C3669   1.467       .  S
C457       C3640   1.475       .  S
C460       C3569   1.477       .  S
C461        O462   1.267       .  A
C461       C3589   1.494       .  S
O463        C478   1.256       .  A
O463       Al471   1.872       .  S
C464        O474   1.264       .  A
C464        O465   1.267       .  A
C464       C3600   1.489       .  S
O465       Al467   1.933       .  S
O466        C468   1.262       .  A
O466       Al467   1.893       .  S
Al467       O475   1.916   1_556  S
Al467       O477   1.918   1_556  S
Al467       O476   1.780   1_556  S
C468        O481   1.266       .  A
C468       C3540   1.491       .  S
O469        C479   1.258       .  A
O469       Al471   1.905       .  S
O470        C483   1.260       .  A
O470       Al480   1.881       .  S
Al471       O484   1.943       .  S
Al471       O481   1.934   1_554  S
Al471       O476   1.781       .  S
O472        C479   1.261       .  A
O472       Al480   1.911       .  S
O473        C482   1.261       .  A
O473       Al480   1.914       .  S
O474       Al480   1.891   1_556  S
O475        C482   1.261       .  A
O476       Al480   1.777       .  S
O477        C478   1.262       .  A
C478       C3560   1.471       .  S
C479       C3509   1.493   1_554  S
C482       C3489   1.487       .  S
C483        O484   1.271       .  A
C483       C3609   1.487       .  S
O485        C500   1.258       .  A
O485       Al493   1.880       .  S
C486        O496   1.262       .  A
C486        O487   1.268       .  A
C486       C3449   1.487       .  S
O487       Al489   1.936       .  S
O488        C490   1.255       .  A
O488       Al489   1.874       .  S
Al489       O497   1.894       .  S
Al489       O499   1.946       .  S
Al489       O498   1.768       .  S
C490        O503   1.272       .  A
C490       C4260   1.476       .  S
O491        C501   1.262       .  A
O491       Al493   1.904       .  S
O492        C505   1.260       .  A
O492       Al502   1.880       .  S
Al493       O506   1.949       .  S
Al493       O503   1.968       .  S
Al493       O498   1.772       .  S
O494        C501   1.264       .  A
O494       Al502   1.924       .  S
O495        C504   1.268       .  A
O495       Al502   1.941       .  S
O496       Al502   1.893       .  S
O497        C504   1.261       .  A
O498       Al502   1.771       .  S
O499        C500   1.267       .  A
C500       C4349   1.480       .  S
C501       C3629   1.482       .  S
C504       C3900   1.484       .  S
C505        O506   1.274       .  A
C505       C3480   1.489       .  S
O507        C522   1.256       .  A
O507       Al515   1.877       .  S
C508        O518   1.265       .  A
C508        O509   1.269       .  A
C508       C3469   1.492       .  S
O509       Al511   1.939   1_554  S
O510        C512   1.259       .  A
O510       Al511   1.883   1_554  S
Al511       O519   1.900       .  S
Al511       O521   1.944       .  S
Al511       O520   1.772       .  S
C512        O525   1.271   1_554  A
C512       C4340   1.479       .  S
O513        C523   1.261       .  A
O513       Al515   1.903       .  S
O514        C527   1.261       .  A
O514       Al524   1.886       .  S
Al515       O528   1.941       .  S
Al515       O525   1.953       .  S
Al515       O520   1.769       .  S
O516        C523   1.262       .  A
O516       Al524   1.919       .  S
O517        C526   1.263       .  A
O517       Al524   1.922       .  S
O518       Al524   1.895   1_554  S
O519        C526   1.262       .  A
O520       Al524   1.776       .  S
O521        C522   1.265       .  A
C522       C4280   1.476       .  S
C523       C3520   1.478       .  S
C526       C3860   1.474       .  S
C527        O528   1.273       .  A
C527       C3460   1.490       .  S
O529        C544   1.268       .  A
O529       Al537   1.919       .  S
C530        O540   1.266       .  A
C530        O531   1.265   1_556  A
C530       C3360   1.491       .  S
O531       Al533   1.915       .  S
O532        C534   1.265       .  A
O532       Al533   1.927       .  S
Al533       O541   1.954       .  S
Al533       O543   1.910       .  S
Al533       O542   1.774       .  S
C534        O547   1.265       .  A
C534       C3400   1.489       .  S
O535        C545   1.265       .  A
O535       Al537   1.931       .  S
O536        C549   1.265       .  A
O536       Al546   1.920       .  S
Al537       O550   1.901       .  S
Al537       O547   1.920       .  S
Al537       O542   1.776       .  S
O538        C545   1.254   1_556  A
O538       Al546   1.876   1_556  S
O539        C548   1.257       .  A
O539       Al546   1.888       .  S
O540       Al546   1.918   1_556  S
O541        C548   1.269       .  A
O542       Al546   1.768       .  S
O543        C544   1.269       .  A
C544       C3369   1.478       .  S
C545       C3429   1.464   1_554  S
C548       C3500   1.488       .  S
C549        O550   1.261       .  A
C549       C3409   1.488       .  S
O551        C566   1.255       .  A
O551       Al559   1.878       .  S
C552        O562   1.262       .  A
C552        O553   1.268       .  A
C552       C3349   1.469       .  S
O553       Al555   1.933       .  S
O554        C556   1.262       .  A
O554       Al555   1.901       .  S
Al555       O563   1.908       .  S
Al555       O565   1.943       .  S
Al555       O564   1.778       .  S
C556        O569   1.266       .  A
C556       C3320   1.483       .  S
O557        C567   1.257       .  A
O557       Al559   1.887       .  S
O558        C571   1.261       .  A
O558       Al568   1.891       .  S
Al559       O572   1.929       .  S
Al559       O569   1.926       .  S
Al559       O564   1.774       .  S
O560        C567   1.264       .  A
O560       Al568   1.930       .  S
O561        C570   1.266       .  A
O561       Al568   1.925       .  S
O562       Al568   1.895       .  S
O563        C570   1.262       .  A
O564       Al568   1.779       .  S
O565        C566   1.267       .  A
C566       C3329   1.479       .  S
C567       C3289   1.475       .  S
C570       C3580   1.496       .  S
C571        O572   1.268       .  A
C571       C3380   1.483       .  S
O573        C588   1.256       .  A
O573       Al581   1.879       .  S
C574        O584   1.266       .  A
C574        O575   1.266       .  A
C574       C3249   1.487   1_554  S
O575       Al577   1.923       .  S
O576        C578   1.253       .  A
O576       Al577   1.863       .  S
Al577       O585   1.897       .  S
Al577       O587   1.940       .  S
Al577       O586   1.774       .  S
C578        O591   1.270       .  A
C578       C3980   1.480       .  S
O579        C589   1.259       .  A
O579       Al581   1.908       .  S
O580        C593   1.268       .  A
O580       Al590   1.891       .  S
Al581       O594   1.947       .  S
Al581       O591   1.956       .  S
Al581       O586   1.775       .  S
O582        C589   1.264       .  A
O582       Al590   1.934       .  S
O583        C592   1.269       .  A
O583       Al590   1.956       .  S
O584       Al590   1.903       .  S
O585        C592   1.260       .  A
O586       Al590   1.782       .  S
O587        C588   1.265       .  A
C588       C4029   1.492       .  S
C589       C3389   1.494       .  S
C592       C3229   1.492       .  S
C593        O594   1.274       .  A
C593       C3269   1.490       .  S
O595        C610   1.252       .  A
O595       Al603   1.879       .  S
C596        O606   1.262       .  A
C596        O597   1.268       .  A
C596       C3280   1.491       .  S
O597       Al599   1.933       .  S
O598        C600   1.257       .  A
O598       Al599   1.860       .  S
Al599       O607   1.889       .  S
Al599       O609   1.944       .  S
Al599       O608   1.768       .  S
C600        O613   1.271       .  A
C600       C4009   1.481       .  S
O601        C611   1.258       .  A
O601       Al603   1.891       .  S
O602        C615   1.261       .  A
O602       Al612   1.881       .  S
Al603       O616   1.931       .  S
Al603       O613   1.953       .  S
Al603       O608   1.770       .  S
O604        C611   1.263       .  A
O604       Al612   1.914       .  S
O605        C614   1.269       .  A
O605       Al612   1.935       .  S
O606       Al612   1.901       .  S
O607        C614   1.262       .  A
O608       Al612   1.767       .  S
O609        C610   1.265       .  A
C610       C3989   1.470       .  S
C611       C3300   1.475       .  S
C614       C3209   1.475       .  S
C615        O616   1.270       .  A
C615       C3260   1.487       .  S
O617        C632   1.263       .  A
O617       Al625   1.914       .  S
C618        O628   1.262       .  A
C618        O619   1.266       .  A
C618       C3169   1.491       .  S
O619       Al621   1.923       .  S
O620        C622   1.264       .  A
O620       Al621   1.916       .  S
Al621       O629   1.914       .  S
Al621       O631   1.908       .  S
Al621       O630   1.787       .  S
C622        O635   1.264       .  A
C622       C3189   1.482       .  S
O623        C633   1.264       .  A
O623       Al625   1.935       .  S
O624        C637   1.257       .  A
O624       Al634   1.898       .  S
Al625       O638   1.904       .  S
Al625       O635   1.910       .  S
Al625       O630   1.789       .  S
O626        C633   1.261       .  A
O626       Al634   1.896       .  S
O627        C636   1.260       .  A
O627       Al634   1.904       .  S
O628       Al634   1.885       .  S
O629        C636   1.261       .  A
O630       Al634   1.775       .  S
O631        C632   1.262       .  A
C632       C3149   1.469       .  S
C633       C3129   1.494       .  S
C636       C3760   1.488       .  S
C637        O638   1.262       .  A
C637       C3109   1.488       .  S
O639        C654   1.256       .  A
O639       Al647   1.873       .  S
C640        O650   1.260       .  A
C640        O641   1.267       .  A
C640       C3180   1.472       .  S
O641       Al643   1.939       .  S
O642        C644   1.257       .  A
O642       Al643   1.868       .  S
Al643       O651   1.884       .  S
Al643       O653   1.936       .  S
Al643       O652   1.771       .  S
C644        O657   1.270       .  A
C644       C3049   1.481       .  S
O645        C655   1.258       .  A
O645       Al647   1.888       .  S
O646        C659   1.265       .  A
O646       Al656   1.891       .  S
Al647       O660   1.939       .  S
Al647       O657   1.952       .  S
Al647       O652   1.770       .  S
O648        C655   1.266       .  A
O648       Al656   1.932       .  S
O649        C658   1.269       .  A
O649       Al656   1.945       .  S
O650       Al656   1.886       .  S
O651        C658   1.259       .  A
O652       Al656   1.775       .  S
O653        C654   1.264       .  A
C654       C3080   1.468       .  S
C655       C3089   1.476       .  S
C658       C3700   1.471       .  S
C659        O660   1.271       .  A
C659       C3160   1.488       .  S
O661        C676   1.260       .  A
O661       Al669   1.881       .  S
C662        O672   1.262       .  A
C662        O663   1.268       .  A
C662       C3040   1.485       .  S
O663       Al665   1.935       .  S
O664        C666   1.260       .  A
O664       Al665   1.892       .  S
Al665       O673   1.914       .  S
Al665       O675   1.955       .  S
Al665       O674   1.782       .  S
C666        O679   1.263       .  A
C666       C4860   1.493       .  S
O667        C677   1.260       .  A
O667       Al669   1.901       .  S
O668        C681   1.262       .  A
O668       Al678   1.892       .  S
Al669       O682   1.935       .  S
Al669       O679   1.929       .  S
Al669       O674   1.778       .  S
O670        C677   1.264       .  A
O670       Al678   1.933       .  S
O671        C680   1.264       .  A
O671       Al678   1.931       .  S
O672       Al678   1.886       .  S
O673        C680   1.264       .  A
O674       Al678   1.781       .  S
O675        C676   1.270       .  A
C676       C4749   1.485       .  S
C677       C3200   1.486       .  S
C680       C3240   1.491       .  S
C681        O682   1.269       .  A
C681       C3009   1.485       .  S
O683        C698   1.262       .  A
O683       Al691   1.906       .  S
C684        O694   1.264       .  A
C684        O685   1.269       .  A
C684       C3020   1.487       .  S
O685       Al687   1.938       .  S
O686        C688   1.249       .  A
O686       Al687   1.852       .  S
Al687       O695   1.877       .  S
Al687       O697   1.944       .  S
Al687       O696   1.766       .  S
C688        O701   1.271       .  A
C688       C4740   1.484       .  S
O689        C699   1.268       .  A
O689       Al691   1.931       .  S
O690        C703   1.264       .  A
O690       Al700   1.887       .  S
Al691       O704   1.937       .  S
Al691       O701   1.959       .  S
Al691       O696   1.778       .  S
O692        C699   1.260       .  A
O692       Al700   1.905       .  S
O693        C702   1.262       .  A
O693       Al700   1.927       .  S
O694       Al700   1.898       .  S
O695        C702   1.257       .  A
O696       Al700   1.777       .  S
O697        C698   1.267       .  A
C698       C4880   1.494       .  S
C699       C3100   1.486       .  S
C702       C3220   1.475       .  S
C703        O704   1.273       .  A
C703       C3029   1.488       .  S
O705        C720   1.256       .  A
O705       Al713   1.883       .  S
C706        O716   1.263       .  A
C706        O707   1.274       .  A
C706       C2969   1.496       .  S
O707       Al709   1.949       .  S
O708        C710   1.259       .  A
O708       Al709   1.885       .  S
Al709       O717   1.927       .  S
Al709       O719   1.945       .  S
Al709       O718   1.775       .  S
C710        O723   1.266       .  A
C710       C4240   1.484       .  S
O711        C721   1.257       .  A
O711       Al713   1.908       .  S
O712        C725   1.265   1_554  A
O712       Al722   1.882       .  S
Al713       O726   1.944       .  S
Al713       O723   1.932       .  S
Al713       O718   1.780       .  S
O714        C721   1.259       .  A
O714       Al722   1.913       .  S
O715        C724   1.260       .  A
O715       Al722   1.919       .  S
O716       Al722   1.893       .  S
O717        C724   1.263       .  A
O718       Al722   1.780       .  S
O719        C720   1.268       .  A
C720       C4120   1.489       .  S
C721       C2989   1.475       .  S
C724       C2940   1.491       .  S
C725        O726   1.271   1_556  A
C725       C2949   1.488       .  S
O727        C742   1.258       .  A
O727       Al735   1.877       .  S
C728        O738   1.261       .  A
C728        O729   1.267       .  A
C728       C2960   1.492       .  S
O729       Al731   1.919       .  S
O730        C732   1.254       .  A
O730       Al731   1.885       .  S
Al731       O739   1.874       .  S
Al731       O741   1.928       .  S
Al731       O740   1.767       .  S
C732        O745   1.265       .  A
C732       C4129   1.471       .  S
O733        C743   1.264       .  A
O733       Al735   1.904       .  S
O734        C747   1.268       .  A
O734       Al744   1.915       .  S
Al735       O748   1.921       .  S
Al735       O745   1.939       .  S
Al735       O740   1.774       .  S
O736        C743   1.269       .  A
O736       Al744   1.930       .  S
O737        C746   1.267       .  A
O737       Al744   1.951       .  S
O738       Al744   1.900       .  S
O739        C746   1.254       .  A
O740       Al744   1.773       .  S
O741        C742   1.268       .  A
C742       C4220   1.482       .  S
C743       C2920   1.488       .  S
C746       C2889   1.475       .  S
C747        O748   1.266       .  A
C747       C2980   1.488       .  S
O749        C764   1.264       .  A
O749       Al757   1.904       .  S
C750        O760   1.261       .  A
C750        O751   1.263       .  A
C750       C2829   1.469       .  S
O751       Al753   1.909       .  S
O752        C754   1.269       .  A
O752       Al753   1.941       .  S
Al753       O761   1.961       .  S
Al753       O763   1.914       .  S
Al753       O762   1.779       .  S
C754        O767   1.259       .  A
C754       C3000   1.483       .  S
O755        C765   1.264       .  A
O755       Al757   1.919       .  S
O756        C769   1.260       .  A
O756       Al766   1.903       .  S
Al757       O770   1.900       .  S
Al757       O767   1.890       .  S
Al757       O762   1.775       .  S
O758        C765   1.259       .  A
O758       Al766   1.888       .  S
O759        C768   1.258       .  A
O759       Al766   1.884       .  S
O760       Al766   1.905       .  S
O761        C768   1.271       .  A
O762       Al766   1.771       .  S
O763        C764   1.266       .  A
C764       C2820   1.483   1_554  S
C765       C2880   1.477       .  S
C768       C2789   1.487       .  S
C769        O770   1.261       .  A
C769       C2849   1.472       .  S
O771        C786   1.257       .  A
O771       Al779   1.878       .  S
C772        O782   1.261       .  A
C772        O773   1.271       .  A
C772       C2840   1.490       .  S
O773       Al775   1.935       .  S
O774        C776   1.256       .  A
O774       Al775   1.881       .  S
Al775       O783   1.900       .  S
Al775       O785   1.937       .  S
Al775       O784   1.777       .  S
C776        O789   1.266       .  A
C776       C2749   1.481       .  S
O777        C787   1.261       .  A
O777       Al779   1.905       .  S
O778        C791   1.263       .  A
O778       Al788   1.885       .  S
Al779       O792   1.934       .  S
Al779       O789   1.932       .  S
Al779       O784   1.785       .  S
O780        C787   1.262       .  A
O780       Al788   1.921       .  S
O781        C790   1.263       .  A
O781       Al788   1.931       .  S
O782       Al788   1.888       .  S
O783        C790   1.259       .  A
O784       Al788   1.779       .  S
O785        C786   1.267       .  A
C786       C2769   1.473       .  S
C787       C2909   1.490       .  S
C790       C2729   1.485       .  S
C791        O792   1.269       .  A
C791       C2809   1.474       .  S
O793        C808   1.251       .  A
O793       Al801   1.869       .  S
C794        O804   1.264       .  A
C794        O795   1.271       .  A
C794       C2669   1.481       .  S
O795       Al797   1.938       .  S
O796        C798   1.255       .  A
O796       Al797   1.866       .  S
Al797       O805   1.900       .  S
Al797       O807   1.951       .  S
Al797       O806   1.769       .  S
C798        O811   1.269       .  A
C798       C4600   1.474       .  S
O799        C809   1.256       .  A
O799       Al801   1.890       .  S
O800        C813   1.263       .  A
O800       Al810   1.880       .  S
Al801       O814   1.947       .  S
Al801       O811   1.956       .  S
Al801       O806   1.770       .  S
O802        C809   1.266       .  A
O802       Al810   1.942       .  S
O803        C812   1.267       .  A
O803       Al810   1.938       .  S
O804       Al810   1.887       .  S
O805        C812   1.261       .  A
O806       Al810   1.776       .  S
O807        C808   1.269       .  A
C808       C4660   1.486       .  S
C809       C2709   1.481       .  S
C812       C2660   1.487       .  S
C813        O814   1.272       .  A
C813       C2689   1.494       .  S
O815        C830   1.258       .  A
O815       Al823   1.876       .  S
C816        O826   1.265       .  A
C816        O817   1.272       .  A
C816       C2700   1.494       .  S
O817       Al819   1.936       .  S
O818        C820   1.254       .  A
O818       Al819   1.878       .  S
Al819       O827   1.914       .  S
Al819       O829   1.958       .  S
Al819       O828   1.768       .  S
C820        O833   1.265       .  A
C820       C4680   1.469       .  S
O821        C831   1.262       .  A
O821       Al823   1.911       .  S
O822        C835   1.268       .  A
O822       Al832   1.898       .  S
Al823       O836   1.930       .  S
Al823       O833   1.941       .  S
Al823       O828   1.775       .  S
O824        C831   1.264       .  A
O824       Al832   1.925       .  S
O825        C834   1.263       .  A
O825       Al832   1.921       .  S
O826       Al832   1.900       .  S
O827        C834   1.264       .  A
O828       Al832   1.770       .  S
O829        C830   1.271       .  A
C830       C4569   1.483       .  S
C831       C2629   1.475       .  S
C834       C2609   1.488       .  S
C835        O836   1.268       .  A
C835       C2680   1.488       .  S
O837        C852   1.266       .  A
O837       Al845   1.921       .  S
C838        O848   1.265       .  A
C838        O839   1.271       .  A
C838       C2529   1.488   1_554  S
O839       Al841   1.912       .  S
O840        C842   1.259       .  A
O840       Al841   1.906       .  S
Al841       O849   1.899       .  S
Al841       O851   1.912       .  S
Al841       O850   1.786       .  S
C842        O855   1.262       .  A
C842       C2720   1.485       .  S
O843        C853   1.260       .  A
O843       Al845   1.913       .  S
O844        C857   1.263       .  A
O844       Al854   1.901       .  S
Al845       O858   1.892       .  S
Al845       O855   1.919       .  S
Al845       O850   1.794       .  S
O846        C853   1.257       .  A
O846       Al854   1.893       .  S
O847        C856   1.260       .  A
O847       Al854   1.922       .  S
O848       Al854   1.903       .  S
O849        C856   1.252       .  A
O850       Al854   1.782       .  S
O851        C852   1.268       .  A
C852       C2560   1.475       .  S
C853       C2589   1.490       .  S
C856       C2800   1.500       .  S
C857        O858   1.260       .  A
C857       C2580   1.480       .  S
O859        C874   1.260       .  A
O859       Al867   1.888       .  S
C860        O870   1.262       .  A
C860        O861   1.266       .  A
C860       C2540   1.471       .  S
O861       Al863   1.924       .  S
O862        C864   1.255       .  A
O862       Al863   1.887       .  S
Al863       O871   1.899       .  S
Al863       O873   1.944       .  S
Al863       O872   1.776       .  S
C864        O877   1.264       .  A
C864       C2500   1.472       .  S
O865        C875   1.259       .  A
O865       Al867   1.894       .  S
O866        C879   1.266       .  A
O866       Al876   1.902       .  S
Al867       O880   1.926       .  S
Al867       O877   1.927       .  S
Al867       O872   1.776       .  S
O868        C875   1.265       .  A
O868       Al876   1.932       .  S
O869        C878   1.267       .  A
O869       Al876   1.941       .  S
O870       Al876   1.898       .  S
O871        C878   1.262       .  A
O872       Al876   1.779       .  S
O873        C874   1.269       .  A
C874       C2520   1.483       .  S
C875       C2640   1.493       .  S
C878       C2740   1.490       .  S
C879        O880   1.269       .  A
C879       C2549   1.483       .  S
O881        C896   1.258       .  A
O881       Al889   1.892       .  S
C882        O892   1.264       .  A
C882        O883   1.269       .  A
C882       C2449   1.483       .  S
O883       Al885   1.932       .  S
O884        C886   1.259       .  A
O884       Al885   1.879       .  S
Al885       O893   1.921       .  S
Al885       O895   1.940       .  S
Al885       O894   1.775       .  S
C886        O899   1.267       .  A
C886       C4560   1.492       .  S
O887        C897   1.259       .  A
O887       Al889   1.902       .  S
O888        C901   1.266       .  A
O888       Al898   1.894       .  S
Al889       O902   1.945       .  S
Al889       O899   1.945       .  S
Al889       O894   1.775       .  S
O890        C897   1.261       .  A
O890       Al898   1.920       .  S
O891        C900   1.264       .  A
O891       Al898   1.919       .  S
O892       Al898   1.904       .  S
O893        C900   1.265       .  A
O894       Al898   1.777       .  S
O895        C896   1.267       .  A
C896       C4420   1.479       .  S
C897       C2469   1.473       .  S
C900       C2900   1.485       .  S
C901        O902   1.271       .  A
C901       C2429   1.495       .  S
O903        C918   1.258       .  A
O903       Al911   1.886       .  S
C904        O914   1.264       .  A
C904        O905   1.272       .  A
C904       C2440   1.497       .  S
O905       Al907   1.941       .  S
O906        C908   1.246       .  A
O906       Al907   1.850       .  S
Al907       O915   1.887   1_556  S
Al907       O917   1.948   1_556  S
Al907       O916   1.764   1_556  S
C908        O921   1.268       .  A
C908       C4440   1.489       .  S
O909        C919   1.269       .  A
O909       Al911   1.935   1_556  S
O910        C923   1.269       .  A
O910       Al920   1.901       .  S
Al911       O924   1.940       .  S
Al911       O921   1.962   1_554  S
Al911       O916   1.781       .  S
O912        C919   1.266   1_554  A
O912       Al920   1.940       .  S
O913        C922   1.268       .  A
O913       Al920   1.965       .  S
O914       Al920   1.901   1_556  S
O915        C922   1.255       .  A
O916       Al920   1.774       .  S
O917        C918   1.270       .  A
C918       C4529   1.499       .  S
C919       C2409   1.509       .  S
C922       C2929   1.498       .  S
C923        O924   1.272       .  A
C923       C2460   1.480       .  S
O925        C940   1.257       .  A
O925       Al933   1.885       .  S
C926        O936   1.265       .  A
C926        O927   1.268       .  A
C926       C2329   1.491       .  S
O927       Al929   1.937       .  S
O928        C930   1.254       .  A
O928       Al929   1.870       .  S
Al929       O937   1.905       .  S
Al929       O939   1.947       .  S
Al929       O938   1.769       .  S
C930        O943   1.271       .  A
C930       C2369   1.480       .  S
O931        C941   1.262       .  A
O931       Al933   1.908       .  S
O932        C945   1.262       .  A
O932       Al942   1.885       .  S
Al933       O946   1.956       .  S
Al933       O943   1.957       .  S
Al933       O938   1.775       .  S
O934        C941   1.261       .  A
O934       Al942   1.924       .  S
O935        C944   1.266       .  A
O935       Al942   1.938       .  S
O936       Al942   1.906       .  S
O937        C944   1.264       .  A
O938       Al942   1.770       .  S
O939        C940   1.268       .  A
C940       C2400   1.483       .  S
C941       C2480   1.497       .  S
C944       C2309   1.498       .  S
C945        O946   1.275       .  A
C945       C2349   1.497       .  S
O947        C962   1.256       .  A
O947       Al955   1.888       .  S
C948        O958   1.266   1_554  A
C948        O949   1.271   1_554  A
C948       C2360   1.499       .  S
O949       Al951   1.947       .  S
O950        C952   1.250   1_554  A
O950       Al951   1.834   1_554  S
Al951       O959   1.899       .  S
Al951       O961   1.965       .  S
Al951       O960   1.771       .  S
C952        O965   1.272       .  A
C952       C2280   1.482   1_556  S
O953        C963   1.262       .  A
O953       Al955   1.926       .  S
O954        C967   1.263       .  A
O954       Al964   1.874       .  S
Al955       O968   1.961       .  S
Al955       O965   1.969       .  S
Al955       O960   1.774       .  S
O956        C963   1.263       .  A
O956       Al964   1.936       .  S
O957        C966   1.267       .  A
O957       Al964   1.943       .  S
O958       Al964   1.897       .  S
O959        C966   1.261       .  A
O960       Al964   1.778       .  S
O961        C962   1.270       .  A
C962       C2289   1.508       .  S
C963       C2420   1.499       .  S
C966       C2249   1.484       .  S
C967        O968   1.279       .  A
C967       C2340   1.489       .  S
O969        C984   1.259       .  A
O969       Al977   1.897       .  S
C970        O980   1.265       .  A
C970        O971   1.266       .  A
C970       C2200   1.499       .  S
O971       Al973   1.925       .  S
O972        C974   1.260       .  A
O972       Al973   1.877       .  S
Al973       O981   1.896       .  S
Al973       O983   1.919       .  S
Al973       O982   1.773       .  S
C974        O987   1.267       .  A
C974       C5080   1.486       .  S
O975        C985   1.259       .  A
O975       Al977   1.905       .  S
O976        C989   1.267       .  A
O976       Al986   1.903       .  S
Al977       O990   1.937       .  S
Al977       O987   1.943       .  S
Al977       O982   1.776       .  S
O978        C985   1.264       .  A
O978       Al986   1.929       .  S
O979        C988   1.268       .  A
O979       Al986   1.944       .  S
O980       Al986   1.919       .  S
O981        C988   1.262       .  A
O982       Al986   1.776       .  S
O983        C984   1.261       .  A
C984       C5129   1.481       .  S
C985       C2229   1.493       .  S
C988       C2649   1.493       .  S
C989        O990   1.269       .  A
C989       C2220   1.497       .  S
O991       C1006   1.255       .  A
O991       Al999   1.871       .  S
C992       O1002   1.263       .  A
C992        O993   1.272       .  A
C992       C2209   1.495       .  S
O993       Al995   1.945       .  S
O994        C996   1.253       .  A
O994       Al995   1.868       .  S
Al995      O1003   1.896       .  S
Al995      O1005   1.953       .  S
Al995      O1004   1.770       .  S
C996       O1009   1.275       .  A
C996       C5160   1.481       .  S
O997       C1007   1.264       .  A
O997       Al999   1.915       .  S
O998       C1011   1.265       .  A
O998      Al1008   1.886       .  S
Al999      O1012   1.964       .  S
Al999      O1009   1.981       .  S
Al999      O1004   1.773       .  S
O1000      C1007   1.263       .  A
O1000     Al1008   1.926       .  S
O1001      C1010   1.268       .  A
O1001     Al1008   1.945       .  S
O1002     Al1008   1.895       .  S
O1003      C1010   1.261       .  A
O1004     Al1008   1.771       .  S
O1005      C1006   1.268       .  A
C1006      C5060   1.478       .  S
C1007      C2169   1.499       .  S
C1010      C2620   1.482       .  S
C1011      O1012   1.275       .  A
C1011      C2189   1.501       .  S
O1013      C1028   1.255       .  A
O1013     Al1021   1.874       .  S
C1014      O1024   1.262       .  A
C1014      O1015   1.270       .  A
C1014      C2149   1.477       .  S
O1015     Al1017   1.942       .  S
O1016      C1018   1.255       .  A
O1016     Al1017   1.860       .  S
Al1017     O1025   1.900       .  S
Al1017     O1027   1.948       .  S
Al1017     O1026   1.771       .  S
C1018      O1031   1.273       .  A
C1018      C2100   1.486       .  S
O1019      C1029   1.263       .  A
O1019     Al1021   1.913       .  S
O1020      C1033   1.263       .  A
O1020     Al1030   1.879       .  S
Al1021     O1034   1.948       .  S
Al1021     O1031   1.971       .  S
Al1021     O1026   1.775       .  S
O1022      C1029   1.263       .  A
O1022     Al1030   1.927       .  S
O1023      C1032   1.268       .  A
O1023     Al1030   1.949       .  S
O1024     Al1030   1.893       .  S
O1025      C1032   1.261       .  A
O1026     Al1030   1.775       .  S
O1027      C1028   1.266       .  A
C1028      C2120   1.483       .  S
C1029      C2240   1.497       .  S
C1032      C2320   1.487       .  S
C1033      O1034   1.275       .  A
C1033      C2129   1.480       .  S
O1035      C1050   1.263       .  A
O1035     Al1043   1.906       .  S
C1036      O1046   1.265       .  A
C1036      O1037   1.266       .  A
C1036      C2160   1.495       .  S
O1037     Al1039   1.907       .  S
O1038      C1040   1.267       .  A
O1038     Al1039   1.929       .  S
Al1039     O1047   1.932       .  S
Al1039     O1049   1.909       .  S
Al1039     O1048   1.784       .  S
C1040      O1053   1.263       .  A
C1040      C2180   1.488       .  S
O1041      C1051   1.263       .  A
O1041     Al1043   1.926       .  S
O1042      C1055   1.265       .  A
O1042     Al1052   1.921       .  S
Al1043     O1056   1.896       .  S
Al1043     O1053   1.906       .  S
Al1043     O1048   1.785       .  S
O1044      C1051   1.258       .  A
O1044     Al1052   1.883       .  S
O1045      C1054   1.258       .  A
O1045     Al1052   1.898       .  S
O1046     Al1052   1.920       .  S
O1047      C1054   1.264       .  A
O1048     Al1052   1.773       .  S
O1049      C1050   1.264       .  A
C1050      C2140   1.472       .  S
C1051      C2069   1.483       .  S
C1054      C2260   1.486       .  S
C1055      O1056   1.259       .  A
C1055      C2049   1.489       .  S
O1057      C1072   1.269       .  A
O1057     Al1065   1.929       .  S
C1058      O1068   1.263       .  A
C1058      O1059   1.271       .  A
C1058      C1989   1.492       .  S
O1059     Al1061   1.923       .  S
O1060      C1062   1.261       .  A
O1060     Al1061   1.920       .  S
Al1061     O1069   1.923       .  S
Al1061     O1071   1.902       .  S
Al1061     O1070   1.775       .  S
C1062      O1075   1.255       .  A
C1062      C2040   1.467       .  S
O1063      C1073   1.264       .  A
O1063     Al1065   1.921       .  S
O1064      C1077   1.265       .  A
O1064     Al1074   1.932       .  S
Al1065     O1078   1.884       .  S
Al1065     O1075   1.890       .  S
Al1065     O1070   1.774       .  S
O1066      C1073   1.254       .  A
O1066     Al1074   1.868       .  S
O1067      C1076   1.262       .  A
O1067     Al1074   1.900       .  S
O1068     Al1074   1.914       .  S
O1069      C1076   1.265       .  A
O1070     Al1074   1.767       .  S
O1071      C1072   1.269       .  A
C1072      C2009   1.487       .  S
C1073      C3549   1.457       .  S
C1076      C1980   1.483       .  S
C1077      O1078   1.257       .  A
C1077      C3660   1.480       .  S
O1079      C1094   1.259       .  A
O1079     Al1087   1.879       .  S
C1080      O1090   1.262       .  A
C1080      O1081   1.265       .  A
C1080      C2000   1.465       .  S
O1081     Al1083   1.921       .  S
O1082      C1084   1.253       .  A
O1082     Al1083   1.878       .  S
Al1083     O1091   1.883       .  S
Al1083     O1093   1.913       .  S
Al1083     O1092   1.776       .  S
C1084      O1097   1.264       .  A
C1084      C3529   1.492       .  S
O1085      C1095   1.263       .  A
O1085     Al1087   1.901       .  S
O1086      C1099   1.267       .  A
O1086     Al1096   1.914       .  S
Al1087     O1100   1.916       .  S
Al1087     O1097   1.931       .  S
Al1087     O1092   1.781       .  S
O1088      C1095   1.266       .  A
O1088     Al1096   1.929       .  S
O1089      C1098   1.265       .  A
O1089     Al1096   1.944       .  S
O1090     Al1096   1.895       .  S
O1091      C1098   1.254       .  A
O1092     Al1096   1.782       .  S
O1093      C1094   1.263       .  A
C1094      C3680   1.470       .  S
C1095      C1949   1.481       .  S
C1098      C1929   1.489       .  S
C1099      O1100   1.264       .  A
C1099      C2020   1.471       .  S
O1101      C1116   1.268       .  A
O1101     Al1109   1.937       .  S
C1102      O1112   1.268       .  A
C1102      O1103   1.260       .  A
C1102      C1920   1.499       .  S
O1103     Al1105   1.903       .  S
O1104      C1106   1.263       .  A
O1104     Al1105   1.918       .  S
Al1105     O1113   1.942       .  S
Al1105     O1115   1.903       .  S
Al1105     O1114   1.772       .  S
C1106      O1119   1.260       .  A
C1106      C2029   1.483       .  S
O1107      C1117   1.268       .  A
O1107     Al1109   1.947       .  S
O1108      C1121   1.267       .  A
O1108     Al1118   1.939       .  S
Al1109     O1122   1.888       .  S
Al1109     O1119   1.889       .  S
Al1109     O1114   1.771       .  S
O1110      C1117   1.257       .  A
O1110     Al1118   1.874       .  S
O1111      C1120   1.260       .  A
O1111     Al1118   1.886       .  S
O1112     Al1118   1.932       .  S
O1113      C1120   1.268       .  A
O1114     Al1118   1.768       .  S
O1115      C1116   1.266       .  A
C1116      C1889   1.497       .  S
C1117      C2389   1.482       .  S
C1120      C1869   1.481       .  S
C1121      O1122   1.258       .  A
C1121      C2269   1.472       .  S
O1123      C1138   1.279       .  A
O1123     Al1131   1.965       .  S
C1124      O1134   1.273       .  A
C1124      O1125   1.269       .  A
C1124      C1900   1.495       .  S
O1125     Al1127   1.900       .  S
O1126      C1128   1.260       .  A
O1126     Al1127   1.924       .  S
Al1127     O1135   1.931       .  S
Al1127     O1137   1.884       .  S
Al1127     O1136   1.780       .  S
C1128      O1141   1.259       .  A
C1128      C1960   1.477       .  S
O1129      C1139   1.274       .  A
O1129     Al1131   1.976       .  S
O1130      C1143   1.269       .  A
O1130     Al1140   1.950       .  S
Al1131     O1144   1.872       .  S
Al1131     O1141   1.912       .  S
Al1131     O1136   1.769       .  S
O1132      C1139   1.253       .  A
O1132     Al1140   1.869       .  S
O1133      C1142   1.261       .  A
O1133     Al1140   1.906       .  S
O1134     Al1140   1.946       .  S
O1135      C1142   1.263       .  A
O1136     Al1140   1.768       .  S
O1137      C1138   1.265       .  A
C1138      C1909   1.494       .  S
C1139      C2300   1.488       .  S
C1142      C1849   1.486       .  S
C1143      O1144   1.251       .  A
C1143      C2380   1.492       .  S
O1145      C1160   1.266       .  A
O1145     Al1153   1.923       .  S
C1146      O1156   1.266       .  A
C1146      O1147   1.261       .  A
C1146      C1789   1.472       .  S
O1147     Al1149   1.891       .  S
O1148      C1150   1.267       .  A
O1148     Al1149   1.938       .  S
Al1149     O1157   1.937       .  S
Al1149     O1159   1.901       .  S
Al1149     O1158   1.777       .  S
C1150      O1163   1.264       .  A
C1150      C1829   1.496       .  S
O1151      C1161   1.263       .  A
O1151     Al1153   1.937       .  S
O1152      C1165   1.269       .  A
O1152     Al1162   1.934       .  S
Al1153     O1166   1.890       .  S
Al1153     O1163   1.900       .  S
Al1153     O1158   1.777       .  S
O1154      C1161   1.254       .  A
O1154     Al1162   1.876       .  S
O1155      C1164   1.256       .  A
O1155     Al1162   1.874       .  S
O1156     Al1162   1.918       .  S
O1157      C1164   1.265       .  A
O1158     Al1162   1.768       .  S
O1159      C1160   1.263       .  A
C1160      C1809   1.470       .  S
C1161      C3340   1.478       .  S
C1164      C1969   1.474       .  S
C1165      O1166   1.261       .  A
C1165      C3420   1.484       .  S
O1167      C1182   1.260       .  A
O1167     Al1175   1.881       .  S
C1168      O1178   1.263       .  A
C1168      O1169   1.266       .  A
C1168      C1800   1.464       .  S
O1169     Al1171   1.912       .  S
O1170      C1172   1.257       .  A
O1170     Al1171   1.879       .  S
Al1171     O1179   1.906       .  S
Al1171     O1181   1.925       .  S
Al1171     O1180   1.774       .  S
C1172      O1185   1.267       .  A
C1172      C3309   1.499       .  S
O1173      C1183   1.267       .  A
O1173     Al1175   1.927       .  S
O1174      C1187   1.266       .  A
O1174     Al1184   1.898       .  S
Al1175     O1188   1.934       .  S
Al1175     O1185   1.952       .  S
Al1175     O1180   1.779       .  S
O1176      C1183   1.262       .  A
O1176     Al1184   1.916       .  S
O1177      C1186   1.263       .  A
O1177     Al1184   1.922       .  S
O1178     Al1184   1.895       .  S
O1179      C1186   1.261       .  A
O1180     Al1184   1.779       .  S
O1181      C1182   1.263       .  A
C1182      C3440   1.476       .  S
C1183      C1769   1.493       .  S
C1186      C1940   1.482       .  S
C1187      O1188   1.270       .  A
C1187      C1820   1.482       .  S
O1189      C1204   1.255       .  A
O1189     Al1197   1.886       .  S
C1190      O1200   1.263       .  A
C1190      O1191   1.264       .  A
C1190      C1729   1.467       .  S
O1191     Al1193   1.922       .  S
O1192      C1194   1.260       .  A
O1192     Al1193   1.881       .  S
Al1193     O1201   1.906       .  S
Al1193     O1203   1.928       .  S
Al1193     O1202   1.779       .  S
C1194      O1207   1.268       .  A
C1194      C2760   1.495       .  S
O1195      C1205   1.261       .  A
O1195     Al1197   1.908       .  S
O1196      C1209   1.263       .  A
O1196     Al1206   1.894       .  S
Al1197     O1210   1.922       .  S
Al1197     O1207   1.948       .  S
Al1197     O1202   1.782       .  S
O1198      C1205   1.260       .  A
O1198     Al1206   1.910       .  S
O1199      C1208   1.265       .  A
O1199     Al1206   1.925       .  S
O1200     Al1206   1.904       .  S
O1201      C1208   1.264       .  A
O1202     Al1206   1.778       .  S
O1203      C1204   1.262       .  A
C1204      C2869   1.465       .  S
C1205      C1840   1.473       .  S
C1208      C1709   1.484       .  S
C1209      O1210   1.267       .  A
C1209      C1749   1.472       .  S
O1211      C1226   1.266       .  A
O1211     Al1219   1.920       .  S
C1212      O1222   1.266       .  A
C1212      O1213   1.263       .  A
C1212      C1740   1.492       .  S
O1213     Al1215   1.906       .  S
O1214      C1216   1.269       .  A
O1214     Al1215   1.938       .  S
Al1215     O1223   1.952       .  S
Al1215     O1225   1.907       .  S
Al1215     O1224   1.777       .  S
C1216      O1229   1.265       .  A
C1216      C1780   1.498       .  S
O1217      C1227   1.266       .  A
O1217     Al1219   1.943       .  S
O1218      C1231   1.264       .  A
O1218     Al1228   1.913       .  S
Al1219     O1232   1.892       .  S
Al1219     O1229   1.913       .  S
Al1219     O1224   1.781       .  S
O1220      C1227   1.255       .  A
O1220     Al1228   1.878       .  S
O1221      C1230   1.257       .  A
O1221     Al1228   1.885       .  S
O1222     Al1228   1.916       .  S
O1223      C1230   1.267       .  A
O1224     Al1228   1.770       .  S
O1225      C1226   1.265       .  A
C1226      C1760   1.477       .  S
C1227      C2780   1.479       .  S
C1230      C1689   1.496       .  S
C1231      O1232   1.259       .  A
C1231      C2860   1.480       .  S
O1233      C1248   1.262       .  A
O1233     Al1241   1.884       .  S
C1234      O1244   1.262       .  A
C1234      O1235   1.269       .  A
C1234      C1640   1.465       .  S
O1235     Al1237   1.928   1_556  S
O1236      C1238   1.256       .  A
O1236     Al1237   1.883   1_556  S
Al1237     O1245   1.904       .  S
Al1237     O1247   1.932       .  S
Al1237     O1246   1.775       .  S
C1238      O1251   1.261   1_556  A
C1238      C3709   1.499       .  S
O1239      C1249   1.268       .  A
O1239     Al1241   1.930       .  S
O1240      C1253   1.264       .  A
O1240     Al1250   1.899       .  S
Al1241     O1254   1.939       .  S
Al1241     O1251   1.935       .  S
Al1241     O1246   1.786       .  S
O1242      C1249   1.261       .  A
O1242     Al1250   1.914       .  S
O1243      C1252   1.259       .  A
O1243     Al1250   1.916       .  S
O1244     Al1250   1.890   1_556  S
O1245      C1252   1.257       .  A
O1246     Al1250   1.781       .  S
O1247      C1248   1.268       .  A
C1248      C3840   1.480       .  S
C1249      C1669   1.499       .  S
C1252      C1620   1.491       .  S
C1253      O1254   1.270       .  A
C1253      C1649   1.490       .  S
O1255      C1270   1.258       .  A
O1255     Al1263   1.878       .  S
C1256      O1266   1.261       .  A
C1256      O1257   1.268       .  A
C1256      C1629   1.474       .  S
O1257     Al1259   1.933       .  S
O1258      C1260   1.256       .  A
O1258     Al1259   1.899       .  S
Al1259     O1267   1.906       .  S
Al1259     O1269   1.933       .  S
Al1259     O1268   1.796       .  S
C1260      O1273   1.259       .  A
C1260      C1589   1.496       .  S
O1261      C1271   1.264       .  A
O1261     Al1263   1.920       .  S
O1262      C1275   1.263       .  A
O1262     Al1272   1.910       .  S
Al1263     O1276   1.903       .  S
Al1263     O1273   1.913       .  S
Al1263     O1268   1.793       .  S
O1264      C1271   1.258       .  A
O1264     Al1272   1.886       .  S
O1265      C1274   1.253       .  A
O1265     Al1272   1.884       .  S
O1266     Al1272   1.879       .  S
O1267      C1274   1.256       .  A
O1268     Al1272   1.794       .  S
O1269      C1270   1.266       .  A
C1270      C1660   1.471       .  S
C1271      C3729   1.466       .  S
C1274      C1569   1.482       .  S
C1275      O1276   1.259       .  A
C1275      C3809   1.481       .  S
O1277      C1292   1.268       .  A
O1277     Al1285   1.930       .  S
C1278      O1288   1.264       .  A
C1278      O1279   1.257       .  A
C1278      C1529   1.483       .  S
O1279     Al1281   1.875   1_556  S
O1280      C1282   1.262       .  A
O1280     Al1281   1.920       .  S
Al1281     O1289   1.931       .  S
Al1281     O1291   1.878       .  S
Al1281     O1290   1.784       .  S
C1282      O1295   1.258       .  A
C1282      C1680   1.481       .  S
O1283      C1293   1.269       .  A
O1283     Al1285   1.936       .  S
O1284      C1297   1.261       .  A
O1284     Al1294   1.926       .  S
Al1285     O1298   1.907       .  S
Al1285     O1295   1.895       .  S
Al1285     O1290   1.780       .  S
O1286      C1293   1.261   1_556  A
O1286     Al1294   1.885   1_556  S
O1287      C1296   1.263       .  A
O1287     Al1294   1.901       .  S
O1288     Al1294   1.930   1_556  S
O1289      C1296   1.266       .  A
O1290     Al1294   1.781       .  S
O1291      C1292   1.257       .  A
C1292      C1549   1.488       .  S
C1293      C2080   1.484   1_554  S
C1296      C1880   1.478       .  S
C1297      O1298   1.260       .  A
C1297      C2089   1.488       .  S
O1299      C1314   1.265       .  A
O1299     Al1307   1.916       .  S
C1300      O1310   1.268       .  A
C1300      O1301   1.262       .  A
C1300      C1560   1.490       .  S
O1301     Al1303   1.897       .  S
O1302      C1304   1.264       .  A
O1302     Al1303   1.924       .  S
Al1303     O1311   1.940       .  S
Al1303     O1313   1.895       .  S
Al1303     O1312   1.779       .  S
C1304      O1317   1.264       .  A
C1304      C1600   1.489       .  S
O1305      C1315   1.264       .  A
O1305     Al1307   1.926       .  S
O1306      C1319   1.265       .  A
O1306     Al1316   1.920       .  S
Al1307     O1320   1.897       .  S
Al1307     O1317   1.913       .  S
Al1307     O1312   1.779       .  S
O1308      C1315   1.257       .  A
O1308     Al1316   1.887       .  S
O1309      C1318   1.258       .  A
O1309     Al1316   1.895       .  S
O1310     Al1316   1.924       .  S
O1311      C1318   1.264       .  A
O1312     Al1316   1.770       .  S
O1313      C1314   1.266       .  A
C1314      C1540   1.483       .  S
C1315      C2109   1.474       .  S
C1318      C1860   1.494       .  S
C1319      O1320   1.260       .  A
C1319      C2060   1.488       .  S
O1321      C1336   1.272       .  A
O1321     Al1329   1.944       .  S
C1322      O1332   1.268       .  A
C1322      O1323   1.263       .  A
C1322      C1489   1.486       .  S
O1323     Al1325   1.897       .  S
O1324      C1326   1.255       .  A
O1324     Al1325   1.894       .  S
Al1325     O1333   1.911       .  S
Al1325     O1335   1.886       .  S
Al1325     O1334   1.780       .  S
C1326      O1339   1.264       .  A
C1326      C1509   1.494       .  S
O1327      C1337   1.269       .  A
O1327     Al1329   1.951       .  S
O1328      C1341   1.259       .  A
O1328     Al1338   1.904       .  S
Al1329     O1342   1.904       .  S
Al1329     O1339   1.933       .  S
Al1329     O1334   1.782       .  S
O1330      C1337   1.262       .  A
O1330     Al1338   1.884       .  S
O1331      C1340   1.260       .  A
O1331     Al1338   1.910       .  S
O1332     Al1338   1.918       .  S
O1333      C1340   1.260       .  A
O1334     Al1338   1.772       .  S
O1335      C1336   1.265       .  A
C1336      C1469   1.494       .  S
C1337      C3140   1.503       .  S
C1340      C1580   1.491       .  S
C1341      O1342   1.259       .  A
C1341      C3060   1.477       .  S
O1343      C1358   1.268       .  A
O1343     Al1351   1.923   1_554  S
C1344      O1354   1.266       .  A
C1344      O1345   1.262       .  A
C1344      C1480   1.485       .  S
O1345     Al1347   1.893       .  S
O1346      C1348   1.265       .  A
O1346     Al1347   1.925       .  S
Al1347     O1355   1.944       .  S
Al1347     O1357   1.891   1_556  S
Al1347     O1356   1.777       .  S
C1348      O1361   1.262       .  A
C1348      C1449   1.481       .  S
O1349      C1359   1.264       .  A
O1349     Al1351   1.928       .  S
O1350      C1363   1.264       .  A
O1350     Al1360   1.923       .  S
Al1351     O1364   1.892   1_556  S
Al1351     O1361   1.904       .  S
Al1351     O1356   1.775       .  S
O1352      C1359   1.256       .  A
O1352     Al1360   1.879       .  S
O1353      C1362   1.256       .  A
O1353     Al1360   1.884       .  S
O1354     Al1360   1.927       .  S
O1355      C1362   1.266       .  A
O1356     Al1360   1.769       .  S
O1357      C1358   1.262       .  A
C1358      C1500   1.486       .  S
C1359      C3069   1.473       .  S
C1362      C1609   1.482       .  S
C1363      O1364   1.262   1_556  A
C1363      C3120   1.488   1_556  S
O1365      C1380   1.271       .  A
O1365     Al1373   1.937       .  S
C1366      O1376   1.267       .  A
C1366      O1367   1.263       .  A
C1366      C1409   1.486       .  S
O1367     Al1369   1.893       .  S
O1368      C1370   1.266       .  A
O1368     Al1369   1.935       .  S
Al1369     O1377   1.948       .  S
Al1369     O1379   1.902       .  S
Al1369     O1378   1.778       .  S
C1370      O1383   1.262       .  A
C1370      C1520   1.490       .  S
O1371      C1381   1.267       .  A
O1371     Al1373   1.945       .  S
O1372      C1385   1.265       .  A
O1372     Al1382   1.929       .  S
Al1373     O1386   1.878       .  S
Al1373     O1383   1.901       .  S
Al1373     O1378   1.770       .  S
O1374      C1381   1.257       .  A
O1374     Al1382   1.883       .  S
O1375      C1384   1.256       .  A
O1375     Al1382   1.885       .  S
O1376     Al1382   1.930       .  S
O1377      C1384   1.267       .  A
O1378     Al1382   1.773       .  S
O1379      C1380   1.264       .  A
C1380      C1440   1.496       .  S
C1381      C2509   1.486       .  S
C1384      C1720   1.476       .  S
C1385      O1386   1.257       .  A
C1385      C2569   1.471       .  S
O1387      C1402   1.272       .  A
O1387     Al1395   1.946       .  S
C1388      O1398   1.271       .  A
C1388      O1389   1.265       .  A
C1388      C1429   1.493   1_556  S
O1389     Al1391   1.901       .  S
O1390      C1392   1.260       .  A
O1390     Al1391   1.918       .  S
Al1391     O1399   1.922       .  S
Al1391     O1401   1.891       .  S
Al1391     O1400   1.781       .  S
C1392      O1405   1.258       .  A
C1392      C1460   1.482       .  S
O1393      C1403   1.267       .  A
O1393     Al1395   1.937       .  S
O1394      C1407   1.266       .  A
O1394     Al1404   1.936       .  S
Al1395     O1408   1.884       .  S
Al1395     O1405   1.905       .  S
Al1395     O1400   1.779       .  S
O1396      C1403   1.258       .  A
O1396     Al1404   1.883       .  S
O1397      C1406   1.263       .  A
O1397     Al1404   1.925       .  S
O1398     Al1404   1.934       .  S
O1399      C1406   1.261       .  A
O1400     Al1404   1.777       .  S
O1401      C1402   1.266       .  A
C1402      C1420   1.490       .  S
C1403      C2600   1.485       .  S
C1406      C1700   1.485       .  S
C1407      O1408   1.257       .  A
C1407      C2489   1.484       .  S
C1409      C1410   1.414       .  A
C1409      C1414   1.409       .  A
C1410      C1411   1.401       .  A
C1410     Br1426   1.920       .  S
C1411      C1412   1.403       .  A
C1411      H1415   1.084       .  S
C1412      C1416   1.481       .  S
C1412      C1413   1.405       .  A
C1413      C1414   1.399       .  A
C1413     Br1425   1.918       .  S
C1414      H1417   1.084       .  S
C1416      C1418   1.402       .  A
C1416      C1422   1.404       .  A
C1418      C1419   1.403       .  A
C1418      H1423   1.084       .  S
C1419      C1420   1.418       .  A
C1419     Br1427   1.921       .  S
C1420      C1421   1.409       .  A
C1421      C1422   1.399       .  A
C1421      H1424   1.083       .  S
C1422     Br1428   1.917       .  S
C1429      C1430   1.420       .  A
C1429      C1434   1.408       .  A
C1430      C1431   1.405       .  A
C1430     Br1446   1.923       .  S
C1431      C1432   1.403       .  A
C1431      H1435   1.083       .  S
C1432      C1436   1.484       .  S
C1432      C1433   1.405       .  A
C1433      C1434   1.397       .  A
C1433     Br1445   1.919       .  S
C1434      H1437   1.083       .  S
C1436      C1438   1.402       .  A
C1436      C1442   1.405       .  A
C1438      C1439   1.404       .  A
C1438      H1443   1.083       .  S
C1439      C1440   1.421       .  A
C1439     Br1447   1.922       .  S
C1440      C1441   1.410       .  A
C1441      C1442   1.398       .  A
C1441      H1444   1.083       .  S
C1442     Br1448   1.919       .  S
C1449      C1450   1.413       .  A
C1449      C1454   1.406       .  A
C1450      C1451   1.403       .  A
C1450     Br1466   1.920       .  S
C1451      C1452   1.403       .  A
C1451      H1455   1.084       .  S
C1452      C1456   1.479       .  S
C1452      C1453   1.406       .  A
C1453      C1454   1.398       .  A
C1453     Br1465   1.919       .  S
C1454      H1457   1.084       .  S
C1456      C1458   1.403       .  A
C1456      C1462   1.405       .  A
C1458      C1459   1.402       .  A
C1458      H1463   1.084       .  S
C1459      C1460   1.412       .  A
C1459     Br1467   1.919       .  S
C1460      C1461   1.407       .  A
C1461      C1462   1.399       .  A
C1461      H1464   1.084       .  S
C1462     Br1468   1.919       .  S
C1469      C1470   1.418       .  A
C1469      C1474   1.412       .  A
C1470      C1471   1.401       .  A
C1470     Br1486   1.922       .  S
C1471      C1472   1.403       .  A
C1471      H1475   1.084       .  S
C1472      C1476   1.485       .  S
C1472      C1473   1.406       .  A
C1473      C1474   1.400       .  A
C1473     Br1485   1.919       .  S
C1474      H1477   1.083       .  S
C1476      C1478   1.404       .  A
C1476      C1482   1.409       .  A
C1478      C1479   1.401       .  A
C1478      H1483   1.083       .  S
C1479      C1480   1.413       .  A
C1479     Br1487   1.920       .  S
C1480      C1481   1.407       .  A
C1481      C1482   1.399       .  A
C1481      H1484   1.084       .  S
C1482     Br1488   1.920       .  S
C1489      C1490   1.419       .  A
C1489      C1494   1.410       .  A
C1490      C1491   1.401       .  A
C1490     Br1506   1.922       .  S
C1491      C1492   1.400       .  A
C1491      H1495   1.084       .  S
C1492      C1496   1.470       .  S
C1492      C1493   1.402       .  A
C1493      C1494   1.392       .  A
C1493     Br1505   1.921       .  S
C1494      H1497   1.083       .  S
C1496      C1498   1.398       .  A
C1496      C1502   1.402       .  A
C1498      C1499   1.398       .  A
C1498      H1503   1.084       .  S
C1499      C1500   1.419       .  A
C1499     Br1507   1.923       .  S
C1500      C1501   1.410       .  A
C1501      C1502   1.395       .  A
C1501      H1504   1.083       .  S
C1502     Br1508   1.920       .  S
C1509      C1510   1.422       .  A
C1509      C1514   1.409       .  A
C1510      C1511   1.397       .  A
C1510     Br1526   1.925       .  S
C1511      C1512   1.397       .  A
C1511      H1515   1.084       .  S
C1512      C1516   1.487       .  S
C1512      C1513   1.411       .  A
C1513      C1514   1.408       .  A
C1513     Br1525   1.918       .  S
C1514      H1517   1.083       .  S
C1516      C1518   1.403       .  A
C1516      C1522   1.408       .  A
C1518      C1519   1.401       .  A
C1518      H1523   1.084       .  S
C1519      C1520   1.416       .  A
C1519     Br1527   1.922       .  S
C1520      C1521   1.408       .  A
C1521      C1522   1.404       .  A
C1521      H1524   1.084       .  S
C1522     Br1528   1.918       .  S
C1529      C1530   1.415       .  A
C1529      C1534   1.408       .  A
C1530      C1531   1.399       .  A
C1530     Br1546   1.921       .  S
C1531      C1532   1.403       .  A
C1531      H1535   1.084       .  S
C1532      C1536   1.477       .  S
C1532      C1533   1.405       .  A
C1533      C1534   1.394       .  A
C1533     Br1545   1.920       .  S
C1534      H1537   1.084       .  S
C1536      C1538   1.401       .  A
C1536      C1542   1.406       .  A
C1538      C1539   1.396       .  A
C1538      H1543   1.083       .  S
C1539      C1540   1.419       .  A
C1539     Br1547   1.925       .  S
C1540      C1541   1.408       .  A
C1541      C1542   1.396       .  A
C1541      H1544   1.083       .  S
C1542     Br1548   1.919       .  S
C1549      C1550   1.421       .  A
C1549      C1554   1.408       .  A
C1550      C1551   1.398       .  A
C1550     Br1566   1.924       .  S
C1551      C1552   1.399       .  A
C1551      H1555   1.084       .  S
C1552      C1556   1.476       .  S
C1552      C1553   1.405       .  A
C1553      C1554   1.399       .  A
C1553     Br1565   1.918       .  S
C1554      H1557   1.083       .  S
C1556      C1558   1.401       .  A
C1556      C1562   1.404       .  A
C1558      C1559   1.404       .  A
C1558      H1563   1.083       .  S
C1559      C1560   1.420       .  A
C1559     Br1567   1.921       .  S
C1560      C1561   1.409       .  A
C1561      C1562   1.394       .  A
C1561      H1564   1.083       .  S
C1562     Br1568   1.921       .  S
C1569      C1570   1.413       .  A
C1569      C1574   1.407       .  A
C1570      C1571   1.403       .  A
C1570     Br1586   1.919       .  S
C1571      C1572   1.404       .  A
C1571      H1575   1.083       .  S
C1572      C1576   1.479       .  S
C1572      C1573   1.405       .  A
C1573      C1574   1.396       .  A
C1573     Br1585   1.920       .  S
C1574      H1577   1.083       .  S
C1576      C1578   1.402       .  A
C1576      C1582   1.403       .  A
C1578      C1579   1.401       .  A
C1578      H1583   1.084       .  S
C1579      C1580   1.417       .  A
C1579     Br1587   1.921       .  S
C1580      C1581   1.412       .  A
C1581      C1582   1.398       .  A
C1581      H1584   1.083       .  S
C1582     Br1588   1.919       .  S
C1589      C1590   1.417       .  A
C1589      C1594   1.411       .  A
C1590      C1591   1.401       .  A
C1590     Br1606   1.917       .  S
C1591      C1592   1.401       .  A
C1591      H1595   1.084       .  S
C1592      C1596   1.488       .  S
C1592      C1593   1.408       .  A
C1593      C1594   1.404       .  A
C1593     Br1605   1.918       .  S
C1594      H1597   1.083       .  S
C1596      C1598   1.403       .  A
C1596      C1602   1.409       .  A
C1598      C1599   1.404       .  A
C1598      H1603   1.083       .  S
C1599      C1600   1.415       .  A
C1599     Br1607   1.919       .  S
C1600      C1601   1.407       .  A
C1601      C1602   1.401       .  A
C1601      H1604   1.083       .  S
C1602     Br1608   1.920       .  S
C1609      C1610   1.413   1_556  A
C1609      C1614   1.403       .  A
C1610      C1611   1.402       .  A
C1610     Br1626   1.922       .  S
C1611      C1612   1.403       .  A
C1611      H1615   1.083       .  S
C1612      C1616   1.487       .  S
C1612      C1613   1.412   1_554  A
C1613      C1614   1.403       .  A
C1613     Br1625   1.919       .  S
C1614      H1617   1.084       .  S
C1616      C1618   1.402       .  A
C1616      C1622   1.408       .  A
C1618      C1619   1.402       .  A
C1618      H1623   1.084   1_554  S
C1619      C1620   1.418       .  A
C1619     Br1627   1.921   1_554  S
C1620      C1621   1.409       .  A
C1621      C1622   1.403       .  A
C1621      H1624   1.084       .  S
C1622     Br1628   1.918       .  S
C1629      C1630   1.408       .  A
C1629      C1634   1.401       .  A
C1630      C1631   1.399       .  A
C1630     Br1646   1.919       .  S
C1631      C1632   1.404       .  A
C1631      H1635   1.083       .  S
C1632      C1636   1.481       .  S
C1632      C1633   1.409       .  A
C1633      C1634   1.400       .  A
C1633     Br1645   1.919       .  S
C1634      H1637   1.076       .  S
C1636      C1638   1.404       .  A
C1636      C1642   1.410       .  A
C1638      C1639   1.395       .  A
C1638      H1643   1.084       .  S
C1639      C1640   1.404       .  A
C1639     Br1647   1.918       .  S
C1640      C1641   1.402       .  A
C1641      C1642   1.402       .  A
C1641      H1644   1.083       .  S
C1642     Br1648   1.917       .  S
C1649      C1650   1.417       .  A
C1649      C1654   1.409       .  A
C1650      C1651   1.402       .  A
C1650     Br1666   1.920       .  S
C1651      C1652   1.399       .  A
C1651      H1655   1.084       .  S
C1652      C1656   1.479       .  S
C1652      C1653   1.407       .  A
C1653      C1654   1.400       .  A
C1653     Br1665   1.920       .  S
C1654      H1657   1.083       .  S
C1656      C1658   1.401       .  A
C1656      C1662   1.409       .  A
C1658      C1659   1.397       .  A
C1658      H1663   1.084       .  S
C1659      C1660   1.408       .  A
C1659     Br1667   1.919       .  S
C1660      C1661   1.403       .  A
C1661      C1662   1.404       .  A
C1661      H1664   1.083       .  S
C1662     Br1668   1.916       .  S
C1669      C1670   1.424       .  A
C1669      C1674   1.409       .  A
C1670      C1671   1.399       .  A
C1670     Br1686   1.925       .  S
C1671      C1672   1.399       .  A
C1671      H1675   1.084       .  S
C1672      C1676   1.492       .  S
C1672      C1673   1.411       .  A
C1673      C1674   1.406       .  A
C1673     Br1685   1.919   1_554  S
C1674      H1677   1.083       .  S
C1676      C1678   1.405       .  A
C1676      C1682   1.414   1_554  A
C1678      C1679   1.400       .  A
C1678      H1683   1.084       .  S
C1679      C1680   1.410       .  A
C1679     Br1687   1.919       .  S
C1680      C1681   1.405       .  A
C1681      C1682   1.404   1_554  A
C1681      H1684   1.084   1_554  S
C1682     Br1688   1.920       .  S
C1689      C1690   1.417       .  A
C1689      C1694   1.411       .  A
C1690      C1691   1.407       .  A
C1690     Br1706   1.920       .  S
C1691      C1692   1.403       .  A
C1691      H1695   1.083       .  S
C1692      C1696   1.488   1_565  S
C1692      C1693   1.406       .  A
C1693      C1694   1.401       .  A
C1693     Br1705   1.918       .  S
C1694      H1697   1.083       .  S
C1696      C1698   1.401       .  A
C1696      C1702   1.411       .  A
C1698      C1699   1.402       .  A
C1698      H1703   1.083       .  S
C1699      C1700   1.414       .  A
C1699     Br1707   1.920       .  S
C1700      C1701   1.404       .  A
C1701      C1702   1.407       .  A
C1701      H1704   1.083       .  S
C1702     Br1708   1.917       .  S
C1709      C1710   1.415       .  A
C1709      C1714   1.405       .  A
C1710      C1711   1.403       .  A
C1710     Br1726   1.921       .  S
C1711      C1712   1.401       .  A
C1711      H1715   1.083       .  S
C1712      C1716   1.481   1_565  S
C1712      C1713   1.407       .  A
C1713      C1714   1.400       .  A
C1713     Br1725   1.919       .  S
C1714      H1717   1.083       .  S
C1716      C1718   1.404       .  A
C1716      C1722   1.407       .  A
C1718      C1719   1.402       .  A
C1718      H1723   1.084   1_545  S
C1719      C1720   1.408       .  A
C1719     Br1727   1.918       .  S
C1720      C1721   1.405       .  A
C1721      C1722   1.401       .  A
C1721      H1724   1.084       .  S
C1722     Br1728   1.917       .  S
C1729      C1730   1.407       .  A
C1729      C1734   1.400       .  A
C1730      C1731   1.400       .  A
C1730     Br1746   1.920       .  S
C1731      C1732   1.405       .  A
C1731      H1735   1.083       .  S
C1732      C1736   1.483       .  S
C1732      C1733   1.411       .  A
C1733      C1734   1.399       .  A
C1733     Br1745   1.920       .  S
C1734      H1737   1.084       .  S
C1736      C1738   1.403       .  A
C1736      C1742   1.406       .  A
C1738      C1739   1.403       .  A
C1738      H1743   1.084       .  S
C1739      C1740   1.419       .  A
C1739     Br1747   1.921       .  S
C1740      C1741   1.410       .  A
C1741      C1742   1.395       .  A
C1741      H1744   1.083       .  S
C1742     Br1748   1.921       .  S
C1749      C1750   1.409       .  A
C1749      C1754   1.403       .  A
C1750      C1751   1.402       .  A
C1750     Br1766   1.918       .  S
C1751      C1752   1.403       .  A
C1751      H1755   1.084       .  S
C1752      C1756   1.476       .  S
C1752      C1753   1.407       .  A
C1753      C1754   1.396       .  A
C1753     Br1765   1.920       .  S
C1754      H1757   1.084       .  S
C1756      C1758   1.402       .  A
C1756      C1762   1.405       .  A
C1758      C1759   1.402       .  A
C1758      H1763   1.084       .  S
C1759      C1760   1.413   1_554  A
C1759     Br1767   1.921   1_554  S
C1760      C1761   1.405       .  A
C1761      C1762   1.397   1_556  A
C1761      H1764   1.084       .  S
C1762     Br1768   1.918       .  S
C1769      C1770   1.418       .  A
C1769      C1774   1.406       .  A
C1770      C1771   1.400       .  A
C1770     Br1786   1.924       .  S
C1771      C1772   1.403       .  A
C1771      H1775   1.084       .  S
C1772      C1776   1.498       .  S
C1772      C1773   1.414       .  A
C1773      C1774   1.408       .  A
C1773     Br1785   1.918       .  S
C1774      H1777   1.083       .  S
C1776      C1778   1.405       .  A
C1776      C1782   1.412       .  A
C1778      C1779   1.406       .  A
C1778      H1783   1.083       .  S
C1779      C1780   1.418       .  A
C1779     Br1787   1.920       .  S
C1780      C1781   1.408       .  A
C1781      C1782   1.403       .  A
C1781      H1784   1.083       .  S
C1782     Br1788   1.920       .  S
C1789      C1790   1.413       .  A
C1789      C1794   1.404       .  A
C1790      C1791   1.398       .  A
C1790     Br1806   1.921       .  S
C1791      C1792   1.400       .  A
C1791      H1795   1.083       .  S
C1792      C1796   1.469       .  S
C1792      C1793   1.405       .  A
C1793      C1794   1.395       .  A
C1793     Br1805   1.920       .  S
C1794      H1797   1.084       .  S
C1796      C1798   1.403       .  A
C1796      C1802   1.406       .  A
C1798      C1799   1.402       .  A
C1798      H1803   1.083       .  S
C1799      C1800   1.408       .  A
C1799     Br1807   1.918       .  S
C1800      C1801   1.401       .  A
C1801      C1802   1.390       .  A
C1801      H1804   1.084       .  S
C1802     Br1808   1.921       .  S
C1809      C1810   1.408       .  A
C1809      C1814   1.404       .  A
C1810      C1811   1.396       .  A
C1810     Br1826   1.921       .  S
C1811      C1812   1.401       .  A
C1811      H1815   1.084       .  S
C1812      C1816   1.475       .  S
C1812      C1813   1.408       .  A
C1813      C1814   1.400       .  A
C1813     Br1825   1.918       .  S
C1814      H1817   1.084       .  S
C1816      C1818   1.399       .  A
C1816      C1822   1.406       .  A
C1818      C1819   1.395   1_554  A
C1818      H1823   1.084       .  S
C1819      C1820   1.415       .  A
C1819     Br1827   1.921       .  S
C1820      C1821   1.408       .  A
C1821      C1822   1.402   1_556  A
C1821      H1824   1.083       .  S
C1822     Br1828   1.917       .  S
C1829      C1830   1.420       .  A
C1829      C1834   1.411       .  A
C1830      C1831   1.401       .  A
C1830     Br1846   1.922       .  S
C1831      C1832   1.401       .  A
C1831      H1835   1.084       .  S
C1832      C1836   1.485       .  S
C1832      C1833   1.406       .  A
C1833      C1834   1.401       .  A
C1833     Br1845   1.918       .  S
C1834      H1837   1.083       .  S
C1836      C1838   1.405       .  A
C1836      C1842   1.410       .  A
C1838      C1839   1.402       .  A
C1838      H1843   1.083       .  S
C1839      C1840   1.407       .  A
C1839     Br1847   1.918       .  S
C1840      C1841   1.403       .  A
C1841      C1842   1.401       .  A
C1841      H1844   1.084       .  S
C1842     Br1848   1.919       .  S
C1849      C1850   1.417       .  A
C1849      C1854   1.405       .  A
C1850      C1851   1.403       .  A
C1850     Br1866   1.922       .  S
C1851      C1852   1.401       .  A
C1851      H1855   1.084       .  S
C1852      C1856   1.485   1_565  S
C1852      C1853   1.409       .  A
C1853      C1854   1.401       .  A
C1853     Br1865   1.918       .  S
C1854      H1857   1.084       .  S
C1856      C1858   1.402       .  A
C1856      C1862   1.406       .  A
C1858      C1859   1.405       .  A
C1858      H1863   1.083       .  S
C1859      C1860   1.418       .  A
C1859     Br1867   1.920       .  S
C1860      C1861   1.409       .  A
C1861      C1862   1.400       .  A
C1861      H1864   1.083       .  S
C1862     Br1868   1.919       .  S
C1869      C1870   1.413       .  A
C1869      C1874   1.406       .  A
C1870      C1871   1.399       .  A
C1870     Br1886   1.919       .  S
C1871      C1872   1.400       .  A
C1871      H1875   1.083       .  S
C1872      C1876   1.479   1_565  S
C1872      C1873   1.408       .  A
C1873      C1874   1.403       .  A
C1873     Br1885   1.918   1_565  S
C1874      H1877   1.083       .  S
C1876      C1878   1.403       .  A
C1876      C1882   1.406       .  A
C1878      C1879   1.402       .  A
C1878      H1883   1.084       .  S
C1879      C1880   1.411       .  A
C1879     Br1887   1.920       .  S
C1880      C1881   1.405       .  A
C1881      C1882   1.400       .  A
C1881      H1884   1.084       .  S
C1882     Br1888   1.918       .  S
C1889      C1890   1.422       .  A
C1889      C1894   1.411       .  A
C1890      C1891   1.402   1_554  A
C1890     Br1906   1.922       .  S
C1891      C1892   1.400       .  A
C1891      H1895   1.084       .  S
C1892      C1896   1.482       .  S
C1892      C1893   1.405       .  A
C1893      C1894   1.402   1_556  A
C1893     Br1905   1.918       .  S
C1894      H1897   1.083       .  S
C1896      C1898   1.399       .  A
C1896      C1902   1.405       .  A
C1898      C1899   1.400       .  A
C1898      H1903   1.084       .  S
C1899      C1900   1.421       .  A
C1899     Br1907   1.922       .  S
C1900      C1901   1.411       .  A
C1901      C1902   1.402       .  A
C1901      H1904   1.083       .  S
C1902     Br1908   1.918       .  S
C1909      C1910   1.420       .  A
C1909      C1914   1.408       .  A
C1910      C1911   1.404       .  A
C1910     Br1926   1.922       .  S
C1911      C1912   1.401       .  A
C1911      H1915   1.083       .  S
C1912      C1916   1.487       .  S
C1912      C1913   1.408       .  A
C1913      C1914   1.403       .  A
C1913     Br1925   1.919       .  S
C1914      H1917   1.083       .  S
C1916      C1918   1.401       .  A
C1916      C1922   1.407       .  A
C1918      C1919   1.406       .  A
C1918      H1923   1.083       .  S
C1919      C1920   1.423       .  A
C1919     Br1927   1.923       .  S
C1920      C1921   1.410       .  A
C1921      C1922   1.401       .  A
C1921      H1924   1.083       .  S
C1922     Br1928   1.919       .  S
C1929      C1930   1.414       .  A
C1929      C1934   1.408       .  A
C1930      C1931   1.402       .  A
C1930     Br1946   1.918       .  S
C1931      C1932   1.403       .  A
C1931      H1935   1.084       .  S
C1932      C1936   1.484       .  S
C1932      C1933   1.406       .  A
C1933      C1934   1.401       .  A
C1933     Br1945   1.919       .  S
C1934      H1937   1.082       .  S
C1936      C1938   1.406       .  A
C1936      C1942   1.406       .  A
C1938      C1939   1.406       .  A
C1938      H1943   1.083       .  S
C1939      C1940   1.412       .  A
C1939     Br1947   1.919       .  S
C1940      C1941   1.406       .  A
C1941      C1942   1.397       .  A
C1941      H1944   1.084       .  S
C1942     Br1948   1.919       .  S
C1949      C1950   1.415       .  A
C1949      C1954   1.405       .  A
C1950      C1951   1.400       .  A
C1950     Br1966   1.920       .  S
C1951      C1952   1.401       .  A
C1951      H1955   1.084       .  S
C1952      C1956   1.483       .  S
C1952      C1953   1.408       .  A
C1953      C1954   1.401       .  A
C1953     Br1965   1.917       .  S
C1954      H1957   1.084       .  S
C1956      C1958   1.404       .  A
C1956      C1962   1.410       .  A
C1958      C1959   1.404       .  A
C1958      H1963   1.083       .  S
C1959      C1960   1.409       .  A
C1959     Br1967   1.918       .  S
C1960      C1961   1.404       .  A
C1961      C1962   1.400       .  A
C1961      H1964   1.084       .  S
C1962     Br1968   1.921       .  S
C1969      C1970   1.408       .  A
C1969      C1974   1.404       .  A
C1970      C1971   1.403       .  A
C1970     Br1986   1.918       .  S
C1971      C1972   1.407       .  A
C1971      H1975   1.083       .  S
C1972      C1976   1.481       .  S
C1972      C1973   1.407       .  A
C1973      C1974   1.395       .  A
C1973     Br1985   1.921       .  S
C1974      H1977   1.084       .  S
C1976      C1978   1.403       .  A
C1976      C1982   1.406       .  A
C1978      C1979   1.399       .  A
C1978      H1983   1.084       .  S
C1979      C1980   1.415       .  A
C1979     Br1987   1.922       .  S
C1980      C1981   1.408       .  A
C1981      C1982   1.398       .  A
C1981      H1984   1.083       .  S
C1982     Br1988   1.919       .  S
C1989      C1990   1.424       .  A
C1989      C1994   1.410       .  A
C1990      C1991   1.395       .  A
C1990     Br2006   1.926       .  S
C1991      C1992   1.396       .  A
C1991      H1995   1.084       .  S
C1992      C1996   1.476       .  S
C1992      C1993   1.404       .  A
C1993      C1994   1.403       .  A
C1993     Br2005   1.916       .  S
C1994      H1997   1.083       .  S
C1996      C1998   1.402   1_554  A
C1996      C2002   1.408   1_554  A
C1998      C1999   1.398       .  A
C1998      H2003   1.083   1_556  S
C1999      C2000   1.407       .  A
C1999     Br2007   1.919       .  S
C2000      C2001   1.401       .  A
C2001      C2002   1.400       .  A
C2001      H2004   1.081       .  S
C2002     Br2008   1.917   1_556  S
C2009      C2010   1.419       .  A
C2009      C2014   1.409       .  A
C2010      C2011   1.396       .  A
C2010     Br2026   1.921       .  S
C2011      C2012   1.399       .  A
C2011      H2015   1.084       .  S
C2012      C2016   1.480       .  S
C2012      C2013   1.406       .  A
C2013      C2014   1.401       .  A
C2013     Br2025   1.917       .  S
C2014      H2017   1.083       .  S
C2016      C2018   1.405       .  A
C2016      C2022   1.408       .  A
C2018      C2019   1.400       .  A
C2018      H2023   1.084       .  S
C2019      C2020   1.406       .  A
C2019     Br2027   1.918       .  S
C2020      C2021   1.405       .  A
C2021      C2022   1.398       .  A
C2021      H2024   1.084       .  S
C2022     Br2028   1.920       .  S
C2029      C2030   1.417       .  A
C2029      C2034   1.410       .  A
C2030      C2031   1.394       .  A
C2030     Br2046   1.922       .  S
C2031      C2032   1.397       .  A
C2031      H2035   1.084       .  S
C2032      C2036   1.469       .  S
C2032      C2033   1.403       .  A
C2033      C2034   1.399       .  A
C2033     Br2045   1.918       .  S
C2034      H2037   1.083       .  S
C2036      C2038   1.400       .  A
C2036      C2042   1.406       .  A
C2038      C2039   1.397       .  A
C2038      H2043   1.084       .  S
C2039      C2040   1.411       .  A
C2039     Br2047   1.921       .  S
C2040      C2041   1.401       .  A
C2041      C2042   1.397       .  A
C2041      H2044   1.084       .  S
C2042     Br2048   1.918       .  S
C2049      C2050   1.419       .  A
C2049      C2054   1.409       .  A
C2050      C2051   1.400       .  A
C2050     Br2066   1.922       .  S
C2051      C2052   1.400       .  A
C2051      H2055   1.084       .  S
C2052      C2056   1.479   1_655  S
C2052      C2053   1.405       .  A
C2053      C2054   1.399       .  A
C2053     Br2065   1.918   1_655  S
C2054      H2057   1.083       .  S
C2056      C2058   1.402       .  A
C2056      C2062   1.404       .  A
C2058      C2059   1.401       .  A
C2058      H2063   1.084       .  S
C2059      C2060   1.418       .  A
C2059     Br2067   1.921       .  S
C2060      C2061   1.409       .  A
C2061      C2062   1.397       .  A
C2061      H2064   1.083       .  S
C2062     Br2068   1.918   1_455  S
C2069      C2070   1.410       .  A
C2069      C2074   1.408       .  A
C2070      C2071   1.396       .  A
C2070     Br2086   1.923       .  S
C2071      C2072   1.406       .  A
C2071      H2075   1.083       .  S
C2072      C2076   1.492   1_655  S
C2072      C2073   1.413       .  A
C2073      C2074   1.403       .  A
C2073     Br2085   1.921       .  S
C2074      H2077   1.083       .  S
C2076      C2078   1.406       .  A
C2076      C2082   1.413       .  A
C2078      C2079   1.398       .  A
C2078      H2083   1.082       .  S
C2079      C2080   1.412       .  A
C2079     Br2087   1.923       .  S
C2080      C2081   1.406   1_556  A
C2081      C2082   1.401   1_554  A
C2081      H2084   1.083       .  S
C2082     Br2088   1.920   1_456  S
C2089      C2090   1.414       .  A
C2089      C2094   1.404       .  A
C2090      C2091   1.399   1_455  A
C2090     Br2106   1.919       .  S
C2091      C2092   1.406       .  A
C2091      H2095   1.083       .  S
C2092      C2096   1.501       .  S
C2092      C2093   1.418   1_655  A
C2093      C2094   1.406       .  A
C2093     Br2105   1.922       .  S
C2094      H2097   1.084       .  S
C2096      C2098   1.405       .  A
C2096      C2102   1.417       .  A
C2098      C2099   1.396       .  A
C2098      H2103   1.083       .  S
C2099      C2100   1.413       .  A
C2099     Br2107   1.921       .  S
C2100      C2101   1.406       .  A
C2101      C2102   1.408       .  A
C2101      H2104   1.083       .  S
C2102     Br2108   1.920       .  S
C2109      C2110   1.408       .  A
C2109      C2114   1.404       .  A
C2110      C2111   1.401       .  A
C2110     Br2126   1.918       .  S
C2111      C2112   1.404       .  A
C2111      H2115   1.084       .  S
C2112      C2116   1.481   1_455  S
C2112      C2113   1.410       .  A
C2113      C2114   1.398       .  A
C2113     Br2125   1.921   1_455  S
C2114      H2117   1.084       .  S
C2116      C2118   1.407       .  A
C2116      C2122   1.404       .  A
C2118      C2119   1.404       .  A
C2118      H2123   1.084       .  S
C2119      C2120   1.409       .  A
C2119     Br2127   1.916       .  S
C2120      C2121   1.409       .  A
C2121      C2122   1.396       .  A
C2121      H2124   1.084       .  S
C2122     Br2128   1.920       .  S
C2129      C2130   1.417       .  A
C2129      C2134   1.405       .  A
C2130      C2131   1.399       .  A
C2130     Br2146   1.921       .  S
C2131      C2132   1.398       .  A
C2131      H2135   1.084       .  S
C2132      C2136   1.475       .  S
C2132      C2133   1.408       .  A
C2133      C2134   1.398       .  A
C2133     Br2145   1.921       .  S
C2134      H2137   1.084       .  S
C2136      C2138   1.403       .  A
C2136      C2142   1.405       .  A
C2138      C2139   1.401       .  A
C2138      H2143   1.083       .  S
C2139      C2140   1.410       .  A
C2139     Br2147   1.920       .  S
C2140      C2141   1.405       .  A
C2141      C2142   1.394       .  A
C2141      H2144   1.084       .  S
C2142     Br2148   1.919       .  S
C2149      C2150   1.413       .  A
C2149      C2154   1.402       .  A
C2150      C2151   1.400       .  A
C2150     Br2166   1.922       .  S
C2151      C2152   1.405       .  A
C2151      H2155   1.083       .  S
C2152      C2156   1.491       .  S
C2152      C2153   1.413       .  A
C2153      C2154   1.400       .  A
C2153     Br2165   1.920       .  S
C2154      H2157   1.083       .  S
C2156      C2158   1.402       .  A
C2156      C2162   1.410       .  A
C2158      C2159   1.397       .  A
C2158      H2163   1.083       .  S
C2159      C2160   1.420   1_554  A
C2159     Br2167   1.924   1_554  S
C2160      C2161   1.410       .  A
C2161      C2162   1.404   1_556  A
C2161      H2164   1.083       .  S
C2162     Br2168   1.919       .  S
C2169      C2170   1.421       .  A
C2169      C2174   1.411       .  A
C2170      C2171   1.400       .  A
C2170     Br2186   1.923       .  S
C2171      C2172   1.401       .  A
C2171      H2175   1.084       .  S
C2172      C2176   1.492       .  S
C2172      C2173   1.409       .  A
C2173      C2174   1.407       .  A
C2173     Br2185   1.918       .  S
C2174      H2177   1.083       .  S
C2176      C2178   1.404       .  A
C2176      C2182   1.410       .  A
C2178      C2179   1.404       .  A
C2178      H2183   1.083       .  S
C2179      C2180   1.416       .  A
C2179     Br2187   1.920       .  S
C2180      C2181   1.405       .  A
C2181      C2182   1.401       .  A
C2181      H2184   1.084       .  S
C2182     Br2188   1.919       .  S
C2189      C2190   1.419       .  A
C2189      C2194   1.412       .  A
C2190      C2191   1.407       .  A
C2190     Br2206   1.920       .  S
C2191      C2192   1.404       .  A
C2191      H2195   1.084       .  S
C2192      C2196   1.488       .  S
C2192      C2193   1.404       .  A
C2193      C2194   1.401       .  A
C2193     Br2205   1.918       .  S
C2194      H2197   1.083       .  S
C2196      C2198   1.404       .  A
C2196      C2202   1.405       .  A
C2198      C2199   1.409       .  A
C2198      H2203   1.083       .  S
C2199      C2200   1.420       .  A
C2199     Br2207   1.920       .  S
C2200      C2201   1.411       .  A
C2201      C2202   1.398       .  A
C2201      H2204   1.083       .  S
C2202     Br2208   1.920       .  S
C2209      C2210   1.420       .  A
C2209      C2214   1.409       .  A
C2210      C2211   1.403       .  A
C2210     Br2226   1.922       .  S
C2211      C2212   1.401       .  A
C2211      H2215   1.084       .  S
C2212      C2216   1.485   1_556  S
C2212      C2213   1.407       .  A
C2213      C2214   1.400       .  A
C2213     Br2225   1.919   1_556  S
C2214      H2217   1.083       .  S
C2216      C2218   1.401       .  A
C2216      C2222   1.406       .  A
C2218      C2219   1.401       .  A
C2218      H2223   1.084       .  S
C2219      C2220   1.421       .  A
C2219     Br2227   1.922       .  S
C2220      C2221   1.411       .  A
C2221      C2222   1.403       .  A
C2221      H2224   1.083       .  S
C2222     Br2228   1.917       .  S
C2229      C2230   1.417       .  A
C2229      C2234   1.407       .  A
C2230      C2231   1.406       .  A
C2230     Br2246   1.921       .  S
C2231      C2232   1.404       .  A
C2231      H2235   1.083       .  S
C2232      C2236   1.489       .  S
C2232      C2233   1.408       .  A
C2233      C2234   1.401       .  A
C2233     Br2245   1.919       .  S
C2234      H2237   1.083       .  S
C2236      C2238   1.401       .  A
C2236      C2242   1.408       .  A
C2238      C2239   1.401       .  A
C2238      H2243   1.084       .  S
C2239      C2240   1.420       .  A
C2239     Br2247   1.922       .  S
C2240      C2241   1.409       .  A
C2241      C2242   1.406       .  A
C2241      H2244   1.083       .  S
C2242     Br2248   1.917       .  S
C2249      C2250   1.413       .  A
C2249      C2254   1.406       .  A
C2250      C2251   1.402       .  A
C2250     Br2266   1.920       .  S
C2251      C2252   1.402       .  A
C2251      H2255   1.084       .  S
C2252      C2256   1.485   1_565  S
C2252      C2253   1.409       .  A
C2253      C2254   1.404       .  A
C2253     Br2265   1.917       .  S
C2254      H2257   1.084       .  S
C2256      C2258   1.404       .  A
C2256      C2262   1.407       .  A
C2258      C2259   1.405       .  A
C2258      H2263   1.083       .  S
C2259      C2260   1.414       .  A
C2259     Br2267   1.920       .  S
C2260      C2261   1.406       .  A
C2261      C2262   1.400       .  A
C2261      H2264   1.084       .  S
C2262     Br2268   1.919       .  S
C2269      C2270   1.408       .  A
C2269      C2274   1.403       .  A
C2270      C2271   1.401       .  A
C2270     Br2286   1.920       .  S
C2271      C2272   1.407   1_455  A
C2271      H2275   1.084       .  S
C2272      C2276   1.485       .  S
C2272      C2273   1.409       .  A
C2273      C2274   1.397   1_655  A
C2273     Br2285   1.922       .  S
C2274      H2277   1.083       .  S
C2276      C2278   1.407       .  A
C2276      C2282   1.408       .  A
C2278      C2279   1.404       .  A
C2278      H2283   1.083       .  S
C2279      C2280   1.411       .  A
C2279     Br2287   1.918   1_554  S
C2280      C2281   1.411       .  A
C2281      C2282   1.394       .  A
C2281      H2284   1.085       .  S
C2282     Br2288   1.925       .  S
C2289      C2290   1.424       .  A
C2289      C2294   1.409       .  A
C2290      C2291   1.402       .  A
C2290     Br2306   1.924       .  S
C2291      C2292   1.401       .  A
C2291      H2295   1.084       .  S
C2292      C2296   1.505   1_655  S
C2292      C2293   1.417       .  A
C2293      C2294   1.412       .  A
C2293     Br2305   1.920   1_655  S
C2294      H2297   1.083       .  S
C2296      C2298   1.407       .  A
C2296      C2302   1.414       .  A
C2298      C2299   1.403       .  A
C2298      H2303   1.083   1_455  S
C2299      C2300   1.409       .  A
C2299     Br2307   1.910       .  S
C2300      C2301   1.409       .  A
C2301      C2302   1.409       .  A
C2301      H2304   1.083       .  S
C2302     Br2308   1.919       .  S
C2309      C2310   1.420       .  A
C2309      C2314   1.409       .  A
C2310      C2311   1.403       .  A
C2310     Br2326   1.922       .  S
C2311      C2312   1.403       .  A
C2311      H2315   1.084       .  S
C2312      C2316   1.493   1_565  S
C2312      C2313   1.410       .  A
C2313      C2314   1.403       .  A
C2313     Br2325   1.919       .  S
C2314      H2317   1.083       .  S
C2316      C2318   1.405       .  A
C2316      C2322   1.412       .  A
C2318      C2319   1.403       .  A
C2318      H2323   1.083       .  S
C2319      C2320   1.412       .  A
C2319     Br2327   1.919       .  S
C2320      C2321   1.406       .  A
C2321      C2322   1.404       .  A
C2321      H2324   1.083       .  S
C2322     Br2328   1.919       .  S
C2329      C2330   1.415       .  A
C2329      C2334   1.409       .  A
C2330      C2331   1.404       .  A
C2330     Br2346   1.921       .  S
C2331      C2332   1.403       .  A
C2331      H2335   1.083       .  S
C2332      C2336   1.486       .  S
C2332      C2333   1.407       .  A
C2333      C2334   1.403       .  A
C2333     Br2345   1.918       .  S
C2334      H2337   1.083       .  S
C2336      C2338   1.400       .  A
C2336      C2342   1.410       .  A
C2338      C2339   1.401       .  A
C2338      H2343   1.084       .  S
C2339      C2340   1.419       .  A
C2339     Br2347   1.923       .  S
C2340      C2341   1.405       .  A
C2341      C2342   1.401       .  A
C2341      H2344   1.083       .  S
C2342     Br2348   1.913       .  S
C2349      C2350   1.422       .  A
C2349      C2354   1.410       .  A
C2350      C2351   1.402       .  A
C2350     Br2366   1.923       .  S
C2351      C2352   1.399       .  A
C2351      H2355   1.084       .  S
C2352      C2356   1.485       .  S
C2352      C2353   1.407       .  A
C2353      C2354   1.404       .  A
C2353     Br2365   1.919       .  S
C2354      H2357   1.083       .  S
C2356      C2358   1.402       .  A
C2356      C2362   1.404       .  A
C2358      C2359   1.405       .  A
C2358      H2363   1.084       .  S
C2359      C2360   1.421       .  A
C2359     Br2367   1.921       .  S
C2360      C2361   1.412       .  A
C2361      C2362   1.401       .  A
C2361      H2364   1.083       .  S
C2362     Br2368   1.918       .  S
C2369      C2370   1.411       .  A
C2369      C2374   1.402       .  A
C2370      C2371   1.400       .  A
C2370     Br2386   1.915       .  S
C2371      C2372   1.404       .  A
C2371      H2375   1.083       .  S
C2372      C2376   1.492   1_655  S
C2372      C2373   1.414       .  A
C2373      C2374   1.399       .  A
C2373     Br2385   1.914       .  S
C2374      H2377   1.080       .  S
C2376      C2378   1.398       .  A
C2376      C2382   1.415       .  A
C2378      C2379   1.396       .  A
C2378      H2383   1.083       .  S
C2379      C2380   1.424       .  A
C2379     Br2387   1.925       .  S
C2380      C2381   1.405       .  A
C2381      C2382   1.404       .  A
C2381      H2384   1.083       .  S
C2382     Br2388   1.919   1_455  S
C2389      C2390   1.410       .  A
C2389      C2394   1.407       .  A
C2390      C2391   1.399       .  A
C2390     Br2406   1.921       .  S
C2391      C2392   1.408       .  A
C2391      H2395   1.082   1_455  S
C2392      C2396   1.490   1_455  S
C2392      C2393   1.411       .  A
C2393      C2394   1.396       .  A
C2393     Br2405   1.920       .  S
C2394      H2397   1.084       .  S
C2396      C2398   1.400       .  A
C2396      C2402   1.416       .  A
C2398      C2399   1.395       .  A
C2398      H2403   1.084       .  S
C2399      C2400   1.417       .  A
C2399     Br2407   1.921       .  S
C2400      C2401   1.402       .  A
C2401      C2402   1.404       .  A
C2401      H2404   1.083       .  S
C2402     Br2408   1.920   1_655  S
C2409      C2410   1.423   1_556  A
C2409      C2414   1.410       .  A
C2410      C2411   1.407       .  A
C2410     Br2426   1.922       .  S
C2411      C2412   1.401   1_554  A
C2411      H2415   1.083       .  S
C2412      C2416   1.501       .  S
C2412      C2413   1.411       .  A
C2413      C2414   1.411       .  A
C2413     Br2425   1.917       .  S
C2414      H2417   1.083       .  S
C2416      C2418   1.408       .  A
C2416      C2422   1.409       .  A
C2418      C2419   1.412       .  A
C2418      H2423   1.083   1_556  S
C2419      C2420   1.415       .  A
C2419     Br2427   1.919   1_556  S
C2420      C2421   1.408       .  A
C2421      C2422   1.406       .  A
C2421      H2424   1.084       .  S
C2422     Br2428   1.917       .  S
C2429      C2430   1.420       .  A
C2429      C2434   1.411       .  A
C2430      C2431   1.403       .  A
C2430     Br2446   1.922       .  S
C2431      C2432   1.401       .  A
C2431      H2435   1.084       .  S
C2432      C2436   1.484       .  S
C2432      C2433   1.405       .  A
C2433      C2434   1.401       .  A
C2433     Br2445   1.918       .  S
C2434      H2437   1.083       .  S
C2436      C2438   1.399       .  A
C2436      C2442   1.406       .  A
C2438      C2439   1.404       .  A
C2438      H2443   1.084       .  S
C2439      C2440   1.423       .  A
C2439     Br2447   1.921       .  S
C2440      C2441   1.409       .  A
C2441      C2442   1.402       .  A
C2441      H2444   1.083       .  S
C2442     Br2448   1.920       .  S
C2449      C2450   1.412       .  A
C2449      C2454   1.406       .  A
C2450      C2451   1.405       .  A
C2450     Br2466   1.918       .  S
C2451      C2452   1.404       .  A
C2451      H2455   1.084       .  S
C2452      C2456   1.482       .  S
C2452      C2453   1.407       .  A
C2453      C2454   1.398       .  A
C2453     Br2465   1.919       .  S
C2454      H2457   1.084       .  S
C2456      C2458   1.404       .  A
C2456      C2462   1.407       .  A
C2458      C2459   1.404       .  A
C2458      H2463   1.083       .  S
C2459      C2460   1.412       .  A
C2459     Br2467   1.920       .  S
C2460      C2461   1.404       .  A
C2461      C2462   1.398       .  A
C2461      H2464   1.084       .  S
C2462     Br2468   1.918       .  S
C2469      C2470   1.408       .  A
C2469      C2474   1.403       .  A
C2470      C2471   1.403       .  A
C2470     Br2486   1.919       .  S
C2471      C2472   1.405       .  A
C2471      H2475   1.083       .  S
C2472      C2476   1.482       .  S
C2472      C2473   1.408       .  A
C2473      C2474   1.398       .  A
C2473     Br2485   1.919       .  S
C2474      H2477   1.084       .  S
C2476      C2478   1.399       .  A
C2476      C2482   1.405       .  A
C2478      C2479   1.400       .  A
C2478      H2483   1.084       .  S
C2479      C2480   1.422       .  A
C2479     Br2487   1.923       .  S
C2480      C2481   1.412       .  A
C2481      C2482   1.403       .  A
C2481      H2484   1.083       .  S
C2482     Br2488   1.918       .  S
C2489      C2490   1.418       .  A
C2489      C2494   1.405       .  A
C2490      C2491   1.395       .  A
C2490     Br2506   1.920       .  S
C2491      C2492   1.397       .  A
C2491      H2495   1.084       .  S
C2492      C2496   1.482       .  S
C2492      C2493   1.411       .  A
C2493      C2494   1.404       .  A
C2493     Br2505   1.919       .  S
C2494      H2497   1.083       .  S
C2496      C2498   1.406       .  A
C2496      C2502   1.409       .  A
C2498      C2499   1.403       .  A
C2498      H2503   1.083       .  S
C2499      C2500   1.409       .  A
C2499     Br2507   1.919       .  S
C2500      C2501   1.402       .  A
C2501      C2502   1.393       .  A
C2501      H2504   1.082       .  S
C2502     Br2508   1.921       .  S
C2509      C2510   1.415       .  A
C2509      C2514   1.409       .  A
C2510      C2511   1.400       .  A
C2510     Br2526   1.921       .  S
C2511      C2512   1.404       .  A
C2511      H2515   1.084       .  S
C2512      C2516   1.489       .  S
C2512      C2513   1.410       .  A
C2513      C2514   1.402       .  A
C2513     Br2525   1.920       .  S
C2514      H2517   1.084       .  S
C2516      C2518   1.401       .  A
C2516      C2522   1.414       .  A
C2518      C2519   1.399       .  A
C2518      H2523   1.083       .  S
C2519      C2520   1.416       .  A
C2519     Br2527   1.921       .  S
C2520      C2521   1.402       .  A
C2521      C2522   1.403       .  A
C2521      H2524   1.083       .  S
C2522     Br2528   1.919       .  S
C2529      C2530   1.422       .  A
C2529      C2534   1.409       .  A
C2530      C2531   1.392       .  A
C2530     Br2546   1.926       .  S
C2531      C2532   1.399       .  A
C2531      H2535   1.084       .  S
C2532      C2536   1.482       .  S
C2532      C2533   1.408       .  A
C2533      C2534   1.402       .  A
C2533     Br2545   1.918       .  S
C2534      H2537   1.082   1_556  S
C2536      C2538   1.402       .  A
C2536      C2542   1.412       .  A
C2538      C2539   1.398       .  A
C2538      H2543   1.083       .  S
C2539      C2540   1.411       .  A
C2539     Br2547   1.918       .  S
C2540      C2541   1.401       .  A
C2541      C2542   1.398       .  A
C2541      H2544   1.084       .  S
C2542     Br2548   1.920       .  S
C2549      C2550   1.414       .  A
C2549      C2554   1.407       .  A
C2550      C2551   1.402       .  A
C2550     Br2566   1.919       .  S
C2551      C2552   1.402       .  A
C2551      H2555   1.083       .  S
C2552      C2556   1.479       .  S
C2552      C2553   1.407       .  A
C2553      C2554   1.398       .  A
C2553     Br2565   1.920       .  S
C2554      H2557   1.083       .  S
C2556      C2558   1.402       .  A
C2556      C2562   1.408       .  A
C2558      C2559   1.400       .  A
C2558      H2563   1.084       .  S
C2559      C2560   1.410       .  A
C2559     Br2567   1.920       .  S
C2560      C2561   1.405       .  A
C2561      C2562   1.401       .  A
C2561      H2564   1.084       .  S
C2562     Br2568   1.919       .  S
C2569      C2570   1.411       .  A
C2569      C2574   1.404       .  A
C2570      C2571   1.397       .  A
C2570     Br2586   1.921       .  S
C2571      C2572   1.402       .  A
C2571      H2575   1.084       .  S
C2572      C2576   1.474       .  S
C2572      C2573   1.407       .  A
C2573      C2574   1.397       .  A
C2573     Br2585   1.919       .  S
C2574      H2577   1.084       .  S
C2576      C2578   1.401       .  A
C2576      C2582   1.404       .  A
C2578      C2579   1.398       .  A
C2578      H2583   1.084       .  S
C2579      C2580   1.417       .  A
C2579     Br2587   1.923       .  S
C2580      C2581   1.406       .  A
C2581      C2582   1.396       .  A
C2581      H2584   1.084       .  S
C2582     Br2588   1.918       .  S
C2589      C2590   1.412       .  A
C2589      C2594   1.409       .  A
C2590      C2591   1.399       .  A
C2590     Br2606   1.919   1_554  S
C2591      C2592   1.405       .  A
C2591      H2595   1.083   1_554  S
C2592      C2596   1.493       .  S
C2592      C2593   1.411       .  A
C2593      C2594   1.405       .  A
C2593     Br2605   1.919       .  S
C2594      H2597   1.083       .  S
C2596      C2598   1.406       .  A
C2596      C2602   1.412   1_554  A
C2598      C2599   1.401       .  A
C2598      H2603   1.083       .  S
C2599      C2600   1.413   1_554  A
C2599     Br2607   1.922       .  S
C2600      C2601   1.406       .  A
C2601      C2602   1.402       .  A
C2601      H2604   1.083       .  S
C2602     Br2608   1.919       .  S
C2609      C2610   1.418       .  A
C2609      C2614   1.406       .  A
C2610      C2611   1.401       .  A
C2610     Br2626   1.923       .  S
C2611      C2612   1.399       .  A
C2611      H2615   1.083       .  S
C2612      C2616   1.483       .  S
C2612      C2613   1.409       .  A
C2613      C2614   1.404       .  A
C2613     Br2625   1.917       .  S
C2614      H2617   1.083       .  S
C2616      C2618   1.403       .  A
C2616      C2622   1.408       .  A
C2618      C2619   1.403       .  A
C2618      H2623   1.083       .  S
C2619      C2620   1.412       .  A
C2619     Br2627   1.919       .  S
C2620      C2621   1.405       .  A
C2621      C2622   1.401       .  A
C2621      H2624   1.083       .  S
C2622     Br2628   1.918       .  S
C2629      C2630   1.411       .  A
C2629      C2634   1.403       .  A
C2630      C2631   1.398       .  A
C2630     Br2646   1.919       .  S
C2631      C2632   1.400       .  A
C2631      H2635   1.083       .  S
C2632      C2636   1.479       .  S
C2632      C2633   1.409       .  A
C2633      C2634   1.403       .  A
C2633     Br2645   1.917       .  S
C2634      H2637   1.083       .  S
C2636      C2638   1.399       .  A
C2636      C2642   1.405       .  A
C2638      C2639   1.400       .  A
C2638      H2643   1.084       .  S
C2639      C2640   1.420       .  A
C2639     Br2647   1.922       .  S
C2640      C2641   1.411       .  A
C2641      C2642   1.401       .  A
C2641      H2644   1.083       .  S
C2642     Br2648   1.919       .  S
C2649      C2650   1.418       .  A
C2649      C2654   1.408       .  A
C2650      C2651   1.404       .  A
C2650     Br2666   1.921       .  S
C2651      C2652   1.403       .  A
C2651      H2655   1.084       .  S
C2652      C2656   1.488       .  S
C2652      C2653   1.407       .  A
C2653      C2654   1.401       .  A
C2653     Br2665   1.919       .  S
C2654      H2657   1.084       .  S
C2656      C2658   1.404       .  A
C2656      C2662   1.408       .  A
C2658      C2659   1.403       .  A
C2658      H2663   1.084       .  S
C2659      C2660   1.414       .  A
C2659     Br2667   1.921       .  S
C2660      C2661   1.407       .  A
C2661      C2662   1.401       .  A
C2661      H2664   1.084       .  S
C2662     Br2668   1.919       .  S
C2669      C2670   1.415       .  A
C2669      C2674   1.407       .  A
C2670      C2671   1.400   1_554  A
C2670     Br2686   1.921       .  S
C2671      C2672   1.400       .  A
C2671      H2675   1.084       .  S
C2672      C2676   1.474       .  S
C2672      C2673   1.405       .  A
C2673      C2674   1.397   1_556  A
C2673     Br2685   1.918       .  S
C2674      H2677   1.083       .  S
C2676      C2678   1.399       .  A
C2676      C2682   1.402       .  A
C2678      C2679   1.399       .  A
C2678      H2683   1.084       .  S
C2679      C2680   1.420       .  A
C2679     Br2687   1.923       .  S
C2680      C2681   1.410       .  A
C2681      C2682   1.398       .  A
C2681      H2684   1.083       .  S
C2682     Br2688   1.918       .  S
C2689      C2690   1.417       .  A
C2689      C2694   1.413       .  A
C2690      C2691   1.402       .  A
C2690     Br2706   1.920       .  S
C2691      C2692   1.402       .  A
C2691      H2695   1.084       .  S
C2692      C2696   1.480       .  S
C2692      C2693   1.403       .  A
C2693      C2694   1.398       .  A
C2693     Br2705   1.919       .  S
C2694      H2697   1.083       .  S
C2696      C2698   1.400       .  A
C2696      C2702   1.405       .  A
C2698      C2699   1.402       .  A
C2698      H2703   1.084       .  S
C2699      C2700   1.420       .  A
C2699     Br2707   1.922       .  S
C2700      C2701   1.411       .  A
C2701      C2702   1.399       .  A
C2701      H2704   1.083       .  S
C2702     Br2708   1.920       .  S
C2709      C2710   1.414       .  A
C2709      C2714   1.403       .  A
C2710      C2711   1.404       .  A
C2710     Br2726   1.921       .  S
C2711      C2712   1.402       .  A
C2711      H2715   1.083       .  S
C2712      C2716   1.482       .  S
C2712      C2713   1.408       .  A
C2713      C2714   1.399       .  A
C2713     Br2725   1.919       .  S
C2714      H2717   1.084       .  S
C2716      C2718   1.400       .  A
C2716      C2722   1.408       .  A
C2718      C2719   1.399       .  A
C2718      H2723   1.084       .  S
C2719      C2720   1.415       .  A
C2719     Br2727   1.921       .  S
C2720      C2721   1.406       .  A
C2721      C2722   1.404       .  A
C2721      H2724   1.083       .  S
C2722     Br2728   1.917       .  S
C2729      C2730   1.413       .  A
C2729      C2734   1.406       .  A
C2730      C2731   1.404       .  A
C2730     Br2746   1.919       .  S
C2731      C2732   1.404       .  A
C2731      H2735   1.084       .  S
C2732      C2736   1.487   1_565  S
C2732      C2733   1.408       .  A
C2733      C2734   1.402       .  A
C2733     Br2745   1.918       .  S
C2734      H2737   1.084       .  S
C2736      C2738   1.403       .  A
C2736      C2742   1.408       .  A
C2738      C2739   1.404       .  A
C2738      H2743   1.084       .  S
C2739      C2740   1.414       .  A
C2739     Br2747   1.917       .  S
C2740      C2741   1.408       .  A
C2741      C2742   1.403       .  A
C2741      H2744   1.083       .  S
C2742     Br2748   1.919       .  S
C2749      C2750   1.414       .  A
C2749      C2754   1.406       .  A
C2750      C2751   1.401       .  A
C2750     Br2766   1.922       .  S
C2751      C2752   1.403       .  A
C2751      H2755   1.084       .  S
C2752      C2756   1.481       .  S
C2752      C2753   1.407       .  A
C2753      C2754   1.399       .  A
C2753     Br2765   1.919       .  S
C2754      H2757   1.083       .  S
C2756      C2758   1.402       .  A
C2756      C2762   1.406       .  A
C2758      C2759   1.405       .  A
C2758      H2763   1.083       .  S
C2759      C2760   1.419       .  A
C2759     Br2767   1.920       .  S
C2760      C2761   1.411       .  A
C2761      C2762   1.395       .  A
C2761      H2764   1.083       .  S
C2762     Br2768   1.923       .  S
C2769      C2770   1.405       .  A
C2769      C2774   1.406       .  A
C2770      C2771   1.403       .  A
C2770     Br2786   1.917       .  S
C2771      C2772   1.406       .  A
C2771      H2775   1.084       .  S
C2772      C2776   1.480       .  S
C2772      C2773   1.405       .  A
C2773      C2774   1.399       .  A
C2773     Br2785   1.918       .  S
C2774      H2777   1.084       .  S
C2776      C2778   1.401       .  A
C2776      C2782   1.408       .  A
C2778      C2779   1.399       .  A
C2778      H2783   1.083       .  S
C2779      C2780   1.412       .  A
C2779     Br2787   1.920       .  S
C2780      C2781   1.407       .  A
C2781      C2782   1.403       .  A
C2781      H2784   1.083       .  S
C2782     Br2788   1.919       .  S
C2789      C2790   1.413       .  A
C2789      C2794   1.407       .  A
C2790      C2791   1.404       .  A
C2790     Br2806   1.919       .  S
C2791      C2792   1.405       .  A
C2791      H2795   1.084       .  S
C2792      C2796   1.493   1_565  S
C2792      C2793   1.411       .  A
C2793      C2794   1.403       .  A
C2793     Br2805   1.919   1_565  S
C2794      H2797   1.084       .  S
C2796      C2798   1.399       .  A
C2796      C2802   1.412       .  A
C2798      C2799   1.402       .  A
C2798      H2803   1.084       .  S
C2799      C2800   1.425       .  A
C2799     Br2807   1.925       .  S
C2800      C2801   1.408       .  A
C2801      C2802   1.406       .  A
C2801      H2804   1.083       .  S
C2802     Br2808   1.919       .  S
C2809      C2810   1.412       .  A
C2809      C2814   1.404       .  A
C2810      C2811   1.399       .  A
C2810     Br2826   1.921       .  S
C2811      C2812   1.402       .  A
C2811      H2815   1.083       .  S
C2812      C2816   1.473       .  S
C2812      C2813   1.405       .  A
C2813      C2814   1.396       .  A
C2813     Br2825   1.918       .  S
C2814      H2817   1.083       .  S
C2816      C2818   1.403       .  A
C2816      C2822   1.403       .  A
C2818      C2819   1.405       .  A
C2818      H2823   1.083       .  S
C2819      C2820   1.414       .  A
C2819     Br2827   1.918       .  S
C2820      C2821   1.407       .  A
C2821      C2822   1.391       .  A
C2821      H2824   1.083       .  S
C2822     Br2828   1.922       .  S
C2829      C2830   1.409       .  A
C2829      C2834   1.404       .  A
C2830      C2831   1.400       .  A
C2830     Br2846   1.921       .  S
C2831      C2832   1.404       .  A
C2831      H2835   1.084       .  S
C2832      C2836   1.477       .  S
C2832      C2833   1.406       .  A
C2833      C2834   1.396       .  A
C2833     Br2845   1.918       .  S
C2834      H2837   1.083       .  S
C2836      C2838   1.398       .  A
C2836      C2842   1.408       .  A
C2838      C2839   1.400       .  A
C2838      H2843   1.084       .  S
C2839      C2840   1.421       .  A
C2839     Br2847   1.922       .  S
C2840      C2841   1.408       .  A
C2841      C2842   1.397       .  A
C2841      H2844   1.083       .  S
C2842     Br2848   1.921       .  S
C2849      C2850   1.408   1_554  A
C2849      C2854   1.406       .  A
C2850      C2851   1.398       .  A
C2850     Br2866   1.919       .  S
C2851      C2852   1.404       .  A
C2851      H2855   1.084       .  S
C2852      C2856   1.475       .  S
C2852      C2853   1.407   1_556  A
C2853      C2854   1.394       .  A
C2853     Br2865   1.920       .  S
C2854      H2857   1.084       .  S
C2856      C2858   1.401       .  A
C2856      C2862   1.406       .  A
C2858      C2859   1.396       .  A
C2858      H2863   1.084   1_556  S
C2859      C2860   1.415       .  A
C2859     Br2867   1.922       .  S
C2860      C2861   1.407       .  A
C2861      C2862   1.396       .  A
C2861      H2864   1.084       .  S
C2862     Br2868   1.919       .  S
C2869      C2870   1.403       .  A
C2869      C2874   1.402       .  A
C2870      C2871   1.400       .  A
C2870     Br2886   1.917       .  S
C2871      C2872   1.408       .  A
C2871      H2875   1.083       .  S
C2872      C2876   1.480       .  S
C2872      C2873   1.408       .  A
C2873      C2874   1.396       .  A
C2873     Br2885   1.921       .  S
C2874      H2877   1.082       .  S
C2876      C2878   1.404       .  A
C2876      C2882   1.408       .  A
C2878      C2879   1.397       .  A
C2878      H2883   1.083       .  S
C2879      C2880   1.410       .  A
C2879     Br2887   1.920       .  S
C2880      C2881   1.406       .  A
C2881      C2882   1.397       .  A
C2881      H2884   1.083       .  S
C2882     Br2888   1.920       .  S
C2889      C2890   1.410       .  A
C2889      C2894   1.403       .  A
C2890      C2891   1.400       .  A
C2890     Br2906   1.922       .  S
C2891      C2892   1.402       .  A
C2891      H2895   1.084       .  S
C2892      C2896   1.484       .  S
C2892      C2893   1.410       .  A
C2893      C2894   1.404       .  A
C2893     Br2905   1.918       .  S
C2894      H2897   1.084       .  S
C2896      C2898   1.399       .  A
C2896      C2902   1.410       .  A
C2898      C2899   1.399       .  A
C2898      H2903   1.084       .  S
C2899      C2900   1.416       .  A
C2899     Br2907   1.922       .  S
C2900      C2901   1.406       .  A
C2901      C2902   1.406       .  A
C2901      H2904   1.083       .  S
C2902     Br2908   1.918       .  S
C2909      C2910   1.419       .  A
C2909      C2914   1.409       .  A
C2910      C2911   1.397       .  A
C2910     Br2926   1.924       .  S
C2911      C2912   1.400       .  A
C2911      H2915   1.084       .  S
C2912      C2916   1.486       .  S
C2912      C2913   1.409       .  A
C2913      C2914   1.404       .  A
C2913     Br2925   1.918       .  S
C2914      H2917   1.083       .  S
C2916      C2918   1.405       .  A
C2916      C2922   1.407       .  A
C2918      C2919   1.406       .  A
C2918      H2923   1.083       .  S
C2919      C2920   1.416       .  A
C2919     Br2927   1.920       .  S
C2920      C2921   1.406       .  A
C2921      C2922   1.395       .  A
C2921      H2924   1.084       .  S
C2922     Br2928   1.921       .  S
C2929      C2930   1.418       .  A
C2929      C2934   1.409       .  A
C2930      C2931   1.404       .  A
C2930     Br2946   1.922       .  S
C2931      C2932   1.401       .  A
C2931      H2935   1.084       .  S
C2932      C2936   1.492       .  S
C2932      C2933   1.410       .  A
C2933      C2934   1.409       .  A
C2933     Br2945   1.917   1_554  S
C2934      H2937   1.083   1_554  S
C2936      C2938   1.401       .  A
C2936      C2942   1.412       .  A
C2938      C2939   1.403       .  A
C2938      H2943   1.084       .  S
C2939      C2940   1.416       .  A
C2939     Br2947   1.922       .  S
C2940      C2941   1.406       .  A
C2941      C2942   1.408       .  A
C2941      H2944   1.084       .  S
C2942     Br2948   1.917   1_554  S
C2949      C2950   1.418       .  A
C2949      C2954   1.410       .  A
C2950      C2951   1.400       .  A
C2950     Br2966   1.921       .  S
C2951      C2952   1.400       .  A
C2951      H2955   1.084       .  S
C2952      C2956   1.475       .  S
C2952      C2953   1.403       .  A
C2953      C2954   1.397       .  A
C2953     Br2965   1.918       .  S
C2954      H2957   1.083       .  S
C2956      C2958   1.400       .  A
C2956      C2962   1.403       .  A
C2958      C2959   1.403       .  A
C2958      H2963   1.083       .  S
C2959      C2960   1.421       .  A
C2959     Br2967   1.922       .  S
C2960      C2961   1.410       .  A
C2961      C2962   1.395       .  A
C2961      H2964   1.083       .  S
C2962     Br2968   1.920       .  S
C2969      C2970   1.422       .  A
C2969      C2974   1.409       .  A
C2970      C2971   1.403       .  A
C2970     Br2986   1.923       .  S
C2971      C2972   1.401       .  A
C2971      H2975   1.084       .  S
C2972      C2976   1.484       .  S
C2972      C2973   1.407       .  A
C2973      C2974   1.400       .  A
C2973     Br2985   1.919       .  S
C2974      H2977   1.083       .  S
C2976      C2978   1.400       .  A
C2976      C2982   1.409       .  A
C2978      C2979   1.399       .  A
C2978      H2983   1.084       .  S
C2979      C2980   1.418       .  A
C2979     Br2987   1.923       .  S
C2980      C2981   1.408       .  A
C2981      C2982   1.403       .  A
C2981      H2984   1.083       .  S
C2982     Br2988   1.918       .  S
C2989      C2990   1.411       .  A
C2989      C2994   1.405       .  A
C2990      C2991   1.395       .  A
C2990     Br3006   1.921       .  S
C2991      C2992   1.400       .  A
C2991      H2995   1.084       .  S
C2992      C2996   1.478       .  S
C2992      C2993   1.408       .  A
C2993      C2994   1.405       .  A
C2993     Br3005   1.916       .  S
C2994      H2997   1.083       .  S
C2996      C2998   1.399       .  A
C2996      C3002   1.407       .  A
C2998      C2999   1.400       .  A
C2998      H3003   1.084       .  S
C2999      C3000   1.416       .  A
C2999     Br3007   1.921       .  S
C3000      C3001   1.405       .  A
C3001      C3002   1.401       .  A
C3001      H3004   1.084       .  S
C3002     Br3008   1.918       .  S
C3009      C3010   1.416       .  A
C3009      C3014   1.405       .  A
C3010      C3011   1.403   1_554  A
C3010     Br3026   1.921       .  S
C3011      C3012   1.401       .  A
C3011      H3015   1.083       .  S
C3012      C3016   1.481       .  S
C3012      C3013   1.408       .  A
C3013      C3014   1.397   1_556  A
C3013     Br3025   1.917       .  S
C3014      H3017   1.083       .  S
C3016      C3018   1.402       .  A
C3016      C3022   1.406       .  A
C3018      C3019   1.402       .  A
C3018      H3023   1.084       .  S
C3019      C3020   1.414       .  A
C3019     Br3027   1.920       .  S
C3020      C3021   1.408       .  A
C3021      C3022   1.400       .  A
C3021      H3024   1.082       .  S
C3022     Br3028   1.919       .  S
C3029      C3030   1.419       .  A
C3029      C3034   1.408       .  A
C3030      C3031   1.401       .  A
C3030     Br3046   1.923       .  S
C3031      C3032   1.400       .  A
C3031      H3035   1.084       .  S
C3032      C3036   1.477       .  S
C3032      C3033   1.405       .  A
C3033      C3034   1.396       .  A
C3033     Br3045   1.920       .  S
C3034      H3037   1.083       .  S
C3036      C3038   1.401       .  A
C3036      C3042   1.405       .  A
C3038      C3039   1.400       .  A
C3038      H3043   1.084       .  S
C3039      C3040   1.415       .  A
C3039     Br3047   1.918       .  S
C3040      C3041   1.409       .  A
C3041      C3042   1.398       .  A
C3041      H3044   1.084       .  S
C3042     Br3048   1.919       .  S
C3049      C3050   1.411       .  A
C3049      C3054   1.406       .  A
C3050      C3051   1.394       .  A
C3050     Br3066   1.915       .  S
C3051      C3052   1.404       .  A
C3051      H3055   1.083       .  S
C3052      C3056   1.490       .  S
C3052      C3053   1.414       .  A
C3053      C3054   1.403       .  A
C3053     Br3065   1.919       .  S
C3054      H3057   1.083       .  S
C3056      C3058   1.402       .  A
C3056      C3062   1.416       .  A
C3058      C3059   1.393       .  A
C3058      H3063   1.083       .  S
C3059      C3060   1.410       .  A
C3059     Br3067   1.915       .  S
C3060      C3061   1.403       .  A
C3061      C3062   1.405       .  A
C3061      H3064   1.084       .  S
C3062     Br3068   1.922       .  S
C3069      C3070   1.411       .  A
C3069      C3074   1.404       .  A
C3070      C3071   1.398       .  A
C3070     Br3086   1.921       .  S
C3071      C3072   1.402       .  A
C3071      H3075   1.084       .  S
C3072      C3076   1.475       .  S
C3072      C3073   1.409       .  A
C3073      C3074   1.396       .  A
C3073     Br3085   1.922       .  S
C3074      H3077   1.084       .  S
C3076      C3078   1.407       .  A
C3076      C3082   1.404       .  A
C3078      C3079   1.400       .  A
C3078      H3083   1.084       .  S
C3079      C3080   1.405       .  A
C3079     Br3087   1.917       .  S
C3080      C3081   1.406       .  A
C3081      C3082   1.394       .  A
C3081      H3084   1.084       .  S
C3082     Br3088   1.919       .  S
C3089      C3090   1.408       .  A
C3089      C3094   1.404       .  A
C3090      C3091   1.401       .  A
C3090     Br3106   1.919       .  S
C3091      C3092   1.407       .  A
C3091      H3095   1.083       .  S
C3092      C3096   1.487       .  S
C3092      C3093   1.410       .  A
C3093      C3094   1.400       .  A
C3093     Br3105   1.919       .  S
C3094      H3097   1.084       .  S
C3096      C3098   1.400       .  A
C3096      C3102   1.412       .  A
C3098      C3099   1.396       .  A
C3098      H3103   1.084       .  S
C3099      C3100   1.416       .  A
C3099     Br3107   1.920       .  S
C3100      C3101   1.406       .  A
C3101      C3102   1.406       .  A
C3101      H3104   1.084       .  S
C3102     Br3108   1.919       .  S
C3109      C3110   1.422       .  A
C3109      C3114   1.408       .  A
C3110      C3111   1.397       .  A
C3110     Br3126   1.924       .  S
C3111      C3112   1.397       .  A
C3111      H3115   1.084       .  S
C3112      C3116   1.475       .  S
C3112      C3113   1.406       .  A
C3113      C3114   1.398       .  A
C3113     Br3125   1.919       .  S
C3114      H3117   1.083       .  S
C3116      C3118   1.399       .  A
C3116      C3122   1.406       .  A
C3118      C3119   1.400       .  A
C3118      H3123   1.084       .  S
C3119      C3120   1.420       .  A
C3119     Br3127   1.922   1_554  S
C3120      C3121   1.409       .  A
C3121      C3122   1.395       .  A
C3121      H3124   1.083       .  S
C3122     Br3128   1.921       .  S
C3129      C3130   1.417       .  A
C3129      C3134   1.406       .  A
C3130      C3131   1.405       .  A
C3130     Br3146   1.921       .  S
C3131      C3132   1.406       .  A
C3131      H3135   1.083       .  S
C3132      C3136   1.497       .  S
C3132      C3133   1.412       .  A
C3133      C3134   1.402       .  A
C3133     Br3145   1.916       .  S
C3134      H3137   1.083       .  S
C3136      C3138   1.407       .  A
C3136      C3142   1.411       .  A
C3138      C3139   1.411       .  A
C3138      H3143   1.083       .  S
C3139      C3140   1.420       .  A
C3139     Br3147   1.919       .  S
C3140      C3141   1.410       .  A
C3141      C3142   1.397       .  A
C3141      H3144   1.083       .  S
C3142     Br3148   1.924       .  S
C3149      C3150   1.407       .  A
C3149      C3154   1.403       .  A
C3150      C3151   1.399       .  A
C3150     Br3166   1.918       .  S
C3151      C3152   1.403       .  A
C3151      H3155   1.083       .  S
C3152      C3156   1.478   1_554  S
C3152      C3153   1.408       .  A
C3153      C3154   1.401       .  A
C3153     Br3165   1.918       .  S
C3154      H3157   1.084       .  S
C3156      C3158   1.400       .  A
C3156      C3162   1.404       .  A
C3158      C3159   1.398       .  A
C3158      H3163   1.084       .  S
C3159      C3160   1.417       .  A
C3159     Br3167   1.922       .  S
C3160      C3161   1.411       .  A
C3161      C3162   1.401       .  A
C3161      H3164   1.083       .  S
C3162     Br3168   1.917       .  S
C3169      C3170   1.415       .  A
C3169      C3174   1.409       .  A
C3170      C3171   1.407       .  A
C3170     Br3186   1.919       .  S
C3171      C3172   1.408       .  A
C3171      H3175   1.083       .  S
C3172      C3176   1.485       .  S
C3172      C3173   1.407       .  A
C3173      C3174   1.388       .  A
C3173     Br3185   1.922       .  S
C3174      H3177   1.083       .  S
C3176      C3178   1.407       .  A
C3176      C3182   1.410       .  A
C3178      C3179   1.401       .  A
C3178      H3183   1.083       .  S
C3179      C3180   1.406       .  A
C3179     Br3187   1.918       .  S
C3180      C3181   1.403       .  A
C3181      C3182   1.396       .  A
C3181      H3184   1.084       .  S
C3182     Br3188   1.920       .  S
C3189      C3190   1.413       .  A
C3189      C3194   1.406       .  A
C3190      C3191   1.403       .  A
C3190     Br3206   1.919       .  S
C3191      C3192   1.403       .  A
C3191      H3195   1.084       .  S
C3192      C3196   1.483       .  S
C3192      C3193   1.407       .  A
C3193      C3194   1.401       .  A
C3193     Br3205   1.918       .  S
C3194      H3197   1.084       .  S
C3196      C3198   1.402       .  A
C3196      C3202   1.407       .  A
C3198      C3199   1.402       .  A
C3198      H3203   1.084       .  S
C3199      C3200   1.415       .  A
C3199     Br3207   1.922       .  S
C3200      C3201   1.407       .  A
C3201      C3202   1.403       .  A
C3201      H3204   1.083       .  S
C3202     Br3208   1.917       .  S
C3209      C3210   1.412       .  A
C3209      C3214   1.406       .  A
C3210      C3211   1.397       .  A
C3210     Br3226   1.921       .  S
C3211      C3212   1.402       .  A
C3211      H3215   1.084       .  S
C3212      C3216   1.473       .  S
C3212      C3213   1.405       .  A
C3213      C3214   1.397       .  A
C3213     Br3225   1.918       .  S
C3214      H3217   1.084       .  S
C3216      C3218   1.402       .  A
C3216      C3222   1.405       .  A
C3218      C3219   1.400       .  A
C3218      H3223   1.083       .  S
C3219      C3220   1.415       .  A
C3219     Br3227   1.921       .  S
C3220      C3221   1.404       .  A
C3221      C3222   1.393       .  A
C3221      H3224   1.084       .  S
C3222     Br3228   1.919       .  S
C3229      C3230   1.416       .  A
C3229      C3234   1.408       .  A
C3230      C3231   1.401       .  A
C3230     Br3246   1.920       .  S
C3231      C3232   1.400       .  A
C3231      H3235   1.084       .  S
C3232      C3236   1.491       .  S
C3232      C3233   1.411       .  A
C3233      C3234   1.409       .  A
C3233     Br3245   1.917       .  S
C3234      H3237   1.083       .  S
C3236      C3238   1.403       .  A
C3236      C3242   1.410       .  A
C3238      C3239   1.405       .  A
C3238      H3243   1.084       .  S
C3239      C3240   1.413       .  A
C3239     Br3247   1.917       .  S
C3240      C3241   1.407       .  A
C3241      C3242   1.406       .  A
C3241      H3244   1.084       .  S
C3242     Br3248   1.918       .  S
C3249      C3250   1.419       .  A
C3249      C3254   1.410       .  A
C3250      C3251   1.398       .  A
C3250     Br3266   1.922       .  S
C3251      C3252   1.399       .  A
C3251      H3255   1.084       .  S
C3252      C3256   1.476       .  S
C3252      C3253   1.405       .  A
C3253      C3254   1.399       .  A
C3253     Br3265   1.919       .  S
C3254      H3257   1.083       .  S
C3256      C3258   1.397       .  A
C3256      C3262   1.406       .  A
C3258      C3259   1.396       .  A
C3258      H3263   1.084       .  S
C3259      C3260   1.420       .  A
C3259     Br3267   1.924       .  S
C3260      C3261   1.409       .  A
C3261      C3262   1.399       .  A
C3261      H3264   1.083       .  S
C3262     Br3268   1.920       .  S
C3269      C3270   1.417       .  A
C3269      C3274   1.409       .  A
C3270      C3271   1.399       .  A
C3270     Br3286   1.919       .  S
C3271      C3272   1.401       .  A
C3271      H3275   1.084       .  S
C3272      C3276   1.484       .  S
C3272      C3273   1.407       .  A
C3273      C3274   1.402       .  A
C3273     Br3285   1.918       .  S
C3274      H3277   1.083       .  S
C3276      C3278   1.402       .  A
C3276      C3282   1.408       .  A
C3278      C3279   1.403       .  A
C3278      H3283   1.083       .  S
C3279      C3280   1.418       .  A
C3279     Br3287   1.920       .  S
C3280      C3281   1.408       .  A
C3281      C3282   1.397       .  A
C3281      H3284   1.083       .  S
C3282     Br3288   1.921       .  S
C3289      C3290   1.414       .  A
C3289      C3294   1.403       .  A
C3290      C3291   1.398       .  A
C3290     Br3306   1.920       .  S
C3291      C3292   1.399       .  A
C3291      H3295   1.084       .  S
C3292      C3296   1.477       .  S
C3292      C3293   1.409       .  A
C3293      C3294   1.400       .  A
C3293     Br3305   1.920       .  S
C3294      H3297   1.084       .  S
C3296      C3298   1.402       .  A
C3296      C3302   1.406       .  A
C3298      C3299   1.402       .  A
C3298      H3303   1.083       .  S
C3299      C3300   1.414       .  A
C3299     Br3307   1.921       .  S
C3300      C3301   1.402       .  A
C3301      C3302   1.394       .  A
C3301      H3304   1.083       .  S
C3302     Br3308   1.919       .  S
C3309      C3310   1.420       .  A
C3309      C3314   1.411       .  A
C3310      C3311   1.409       .  A
C3310     Br3326   1.920       .  S
C3311      C3312   1.404       .  A
C3311      H3315   1.083       .  S
C3312      C3316   1.486       .  S
C3312      C3313   1.406       .  A
C3313      C3314   1.394       .  A
C3313     Br3325   1.924       .  S
C3314      H3317   1.083       .  S
C3316      C3318   1.406       .  A
C3316      C3322   1.409       .  A
C3318      C3319   1.405       .  A
C3318      H3323   1.083       .  S
C3319      C3320   1.411       .  A
C3319     Br3327   1.920       .  S
C3320      C3321   1.406       .  A
C3321      C3322   1.397       .  A
C3321      H3324   1.081       .  S
C3322     Br3328   1.921       .  S
C3329      C3330   1.419       .  A
C3329      C3334   1.403       .  A
C3330      C3331   1.394       .  A
C3330     Br3346   1.921       .  S
C3331      C3332   1.395       .  A
C3331      H3335   1.084       .  S
C3332      C3336   1.477       .  S
C3332      C3333   1.412       .  A
C3333      C3334   1.402       .  A
C3333     Br3345   1.919       .  S
C3334      H3337   1.083       .  S
C3336      C3338   1.402       .  A
C3336      C3342   1.406       .  A
C3338      C3339   1.398       .  A
C3338      H3343   1.084       .  S
C3339      C3340   1.414       .  A
C3339     Br3347   1.920       .  S
C3340      C3341   1.407       .  A
C3341      C3342   1.398       .  A
C3341      H3344   1.084       .  S
C3342     Br3348   1.918       .  S
C3349      C3350   1.407       .  A
C3349      C3354   1.401       .  A
C3350      C3351   1.400       .  A
C3350     Br3366   1.920       .  S
C3351      C3352   1.405       .  A
C3351      H3355   1.083       .  S
C3352      C3356   1.481       .  S
C3352      C3353   1.409       .  A
C3353      C3354   1.399       .  A
C3353     Br3365   1.918       .  S
C3354      H3357   1.084       .  S
C3356      C3358   1.404       .  A
C3356      C3362   1.404       .  A
C3358      C3359   1.406       .  A
C3358      H3363   1.083       .  S
C3359      C3360   1.417       .  A
C3359     Br3367   1.920       .  S
C3360      C3361   1.410       .  A
C3361      C3362   1.394       .  A
C3361      H3364   1.083       .  S
C3362     Br3368   1.922       .  S
C3369      C3370   1.412       .  A
C3369      C3374   1.406       .  A
C3370      C3371   1.401       .  A
C3370     Br3386   1.919       .  S
C3371      C3372   1.403       .  A
C3371      H3375   1.084       .  S
C3372      C3376   1.479       .  S
C3372      C3373   1.407       .  A
C3373      C3374   1.397       .  A
C3373     Br3385   1.920       .  S
C3374      H3377   1.084       .  S
C3376      C3378   1.401       .  A
C3376      C3382   1.408       .  A
C3378      C3379   1.401       .  A
C3378      H3383   1.084       .  S
C3379      C3380   1.415       .  A
C3379     Br3387   1.920       .  S
C3380      C3381   1.406       .  A
C3381      C3382   1.397       .  A
C3381      H3384   1.084       .  S
C3382     Br3388   1.921       .  S
C3389      C3390   1.416       .  A
C3389      C3394   1.407       .  A
C3390      C3391   1.405       .  A
C3390     Br3406   1.919       .  S
C3391      C3392   1.402       .  A
C3391      H3395   1.084       .  S
C3392      C3396   1.491       .  S
C3392      C3393   1.410       .  A
C3393      C3394   1.405       .  A
C3393     Br3405   1.918       .  S
C3394      H3397   1.084       .  S
C3396      C3398   1.408       .  A
C3396      C3402   1.408       .  A
C3398      C3399   1.410       .  A
C3398      H3403   1.083   1_554  S
C3399      C3400   1.413       .  A
C3399     Br3407   1.919   1_554  S
C3400      C3401   1.405       .  A
C3401      C3402   1.398       .  A
C3401      H3404   1.084       .  S
C3402     Br3408   1.920       .  S
C3409      C3410   1.417       .  A
C3409      C3414   1.409       .  A
C3410      C3411   1.400       .  A
C3410     Br3426   1.921       .  S
C3411      C3412   1.402       .  A
C3411      H3415   1.084       .  S
C3412      C3416   1.482       .  S
C3412      C3413   1.406       .  A
C3413      C3414   1.399       .  A
C3413     Br3425   1.919       .  S
C3414      H3417   1.084       .  S
C3416      C3418   1.403       .  A
C3416      C3422   1.407       .  A
C3418      C3419   1.401       .  A
C3418      H3423   1.084       .  S
C3419      C3420   1.415       .  A
C3419     Br3427   1.922       .  S
C3420      C3421   1.406       .  A
C3421      C3422   1.398       .  A
C3421      H3424   1.084       .  S
C3422     Br3428   1.919       .  S
C3429      C3430   1.408       .  A
C3429      C3434   1.401       .  A
C3430      C3431   1.400       .  A
C3430     Br3446   1.918       .  S
C3431      C3432   1.403       .  A
C3431      H3435   1.083       .  S
C3432      C3436   1.475       .  S
C3432      C3433   1.410       .  A
C3433      C3434   1.393       .  A
C3433     Br3445   1.923   1_556  S
C3434      H3437   1.084   1_556  S
C3436      C3438   1.405       .  A
C3436      C3442   1.403       .  A
C3438      C3439   1.402       .  A
C3438      H3443   1.084       .  S
C3439      C3440   1.412       .  A
C3439     Br3447   1.919       .  S
C3440      C3441   1.406       .  A
C3441      C3442   1.392       .  A
C3441      H3444   1.084       .  S
C3442     Br3448   1.920       .  S
C3449      C3450   1.415       .  A
C3449      C3454   1.409       .  A
C3450      C3451   1.401       .  A
C3450     Br3466   1.921       .  S
C3451      C3452   1.402       .  A
C3451      H3455   1.084       .  S
C3452      C3456   1.482       .  S
C3452      C3453   1.406       .  A
C3453      C3454   1.400       .  A
C3453     Br3465   1.919       .  S
C3454      H3457   1.083       .  S
C3456      C3458   1.401       .  A
C3456      C3462   1.407       .  A
C3458      C3459   1.402       .  A
C3458      H3463   1.084       .  S
C3459      C3460   1.420       .  A
C3459     Br3467   1.922       .  S
C3460      C3461   1.406       .  A
C3461      C3462   1.396       .  A
C3461      H3464   1.083       .  S
C3462     Br3468   1.914       .  S
C3469      C3470   1.420       .  A
C3469      C3474   1.412       .  A
C3470      C3471   1.398       .  A
C3470     Br3486   1.923       .  S
C3471      C3472   1.399       .  A
C3471      H3475   1.084       .  S
C3472      C3476   1.478       .  S
C3472      C3473   1.403       .  A
C3473      C3474   1.401       .  A
C3473     Br3485   1.917       .  S
C3474      H3477   1.083       .  S
C3476      C3478   1.399       .  A
C3476      C3482   1.405       .  A
C3478      C3479   1.402       .  A
C3478      H3483   1.083       .  S
C3479      C3480   1.421       .  A
C3479     Br3487   1.923       .  S
C3480      C3481   1.406       .  A
C3481      C3482   1.396       .  A
C3481      H3484   1.083       .  S
C3482     Br3488   1.914       .  S
C3489      C3490   1.412       .  A
C3489      C3494   1.407       .  A
C3490      C3491   1.405       .  A
C3490     Br3506   1.918       .  S
C3491      C3492   1.406       .  A
C3491      H3495   1.084       .  S
C3492      C3496   1.490       .  S
C3492      C3493   1.409       .  A
C3493      C3494   1.401       .  A
C3493     Br3505   1.919       .  S
C3494      H3497   1.083       .  S
C3496      C3498   1.404       .  A
C3496      C3502   1.412       .  A
C3498      C3499   1.404       .  A
C3498      H3503   1.083       .  S
C3499      C3500   1.416       .  A
C3499     Br3507   1.922       .  S
C3500      C3501   1.405       .  A
C3501      C3502   1.402       .  A
C3501      H3504   1.083       .  S
C3502     Br3508   1.920       .  S
C3509      C3510   1.418       .  A
C3509      C3514   1.409       .  A
C3510      C3511   1.404       .  A
C3510     Br3526   1.922       .  S
C3511      C3512   1.405       .  A
C3511      H3515   1.084       .  S
C3512      C3516   1.489       .  S
C3512      C3513   1.408       .  A
C3513      C3514   1.396       .  A
C3513     Br3525   1.921       .  S
C3514      H3517   1.083       .  S
C3516      C3518   1.404       .  A
C3516      C3522   1.412   1_556  A
C3518      C3519   1.399       .  A
C3518      H3523   1.083       .  S
C3519      C3520   1.413       .  A
C3519     Br3527   1.923       .  S
C3520      C3521   1.402       .  A
C3521      C3522   1.401   1_556  A
C3521      H3524   1.084   1_556  S
C3522     Br3528   1.919       .  S
C3529      C3530   1.421       .  A
C3529      C3534   1.412       .  A
C3530      C3531   1.395       .  A
C3530     Br3546   1.926       .  S
C3531      C3532   1.398       .  A
C3531      H3535   1.084       .  S
C3532      C3536   1.481       .  S
C3532      C3533   1.405       .  A
C3533      C3534   1.404       .  A
C3533     Br3545   1.916       .  S
C3534      H3537   1.083       .  S
C3536      C3538   1.401       .  A
C3536      C3542   1.408       .  A
C3538      C3539   1.403       .  A
C3538      H3543   1.084       .  S
C3539      C3540   1.418       .  A
C3539     Br3547   1.919   1_556  S
C3540      C3541   1.407       .  A
C3541      C3542   1.399       .  A
C3541      H3544   1.084       .  S
C3542     Br3548   1.921       .  S
C3549      C3550   1.408       .  A
C3549      C3554   1.401       .  A
C3550      C3551   1.396       .  A
C3550     Br3566   1.921       .  S
C3551      C3552   1.403       .  A
C3551      H3555   1.083       .  S
C3552      C3556   1.469       .  S
C3552      C3553   1.407       .  A
C3553      C3554   1.391       .  A
C3553     Br3565   1.922       .  S
C3554      H3557   1.084       .  S
C3556      C3558   1.404       .  A
C3556      C3562   1.403       .  A
C3558      C3559   1.399       .  A
C3558      H3563   1.084       .  S
C3559      C3560   1.409       .  A
C3559     Br3567   1.920       .  S
C3560      C3561   1.406       .  A
C3561      C3562   1.391       .  A
C3561      H3564   1.084       .  S
C3562     Br3568   1.921       .  S
C3569      C3570   1.410       .  A
C3569      C3574   1.404       .  A
C3570      C3571   1.403       .  A
C3570     Br3586   1.919       .  S
C3571      C3572   1.406       .  A
C3571      H3575   1.083       .  S
C3572      C3576   1.488       .  S
C3572      C3573   1.410       .  A
C3573      C3574   1.398       .  A
C3573     Br3585   1.920       .  S
C3574      H3577   1.084       .  S
C3576      C3578   1.405       .  A
C3576      C3582   1.406       .  A
C3578      C3579   1.404       .  A
C3578      H3583   1.083       .  S
C3579      C3580   1.418       .  A
C3579     Br3587   1.922       .  S
C3580      C3581   1.411       .  A
C3581      C3582   1.399       .  A
C3581      H3584   1.083       .  S
C3582     Br3588   1.920       .  S
C3589      C3590   1.418       .  A
C3589      C3594   1.411       .  A
C3590      C3591   1.406       .  A
C3590     Br3606   1.919       .  S
C3591      C3592   1.403       .  A
C3591      H3595   1.083       .  S
C3592      C3596   1.480       .  S
C3592      C3593   1.404       .  A
C3593      C3594   1.393       .  A
C3593     Br3605   1.922       .  S
C3594      H3597   1.083       .  S
C3596      C3598   1.401       .  A
C3596      C3602   1.405       .  A
C3598      C3599   1.399       .  A
C3598      H3603   1.084       .  S
C3599      C3600   1.419       .  A
C3599     Br3607   1.923       .  S
C3600      C3601   1.410       .  A
C3601      C3602   1.400       .  A
C3601      H3604   1.083       .  S
C3602     Br3608   1.917       .  S
C3609      C3610   1.417       .  A
C3609      C3614   1.406       .  A
C3610      C3611   1.400       .  A
C3610     Br3626   1.922       .  S
C3611      C3612   1.400       .  A
C3611      H3615   1.084       .  S
C3612      C3616   1.484       .  S
C3612      C3613   1.410       .  A
C3613      C3614   1.401       .  A
C3613     Br3625   1.915       .  S
C3614      H3617   1.083       .  S
C3616      C3618   1.401       .  A
C3616      C3622   1.408       .  A
C3618      C3619   1.399       .  A
C3618      H3623   1.084       .  S
C3619      C3620   1.417       .  A
C3619     Br3627   1.923       .  S
C3620      C3621   1.408       .  A
C3621      C3622   1.404       .  A
C3621      H3624   1.083       .  S
C3622     Br3628   1.917       .  S
C3629      C3630   1.415       .  A
C3629      C3634   1.406       .  A
C3630      C3631   1.398       .  A
C3630     Br3646   1.923       .  S
C3631      C3632   1.400       .  A
C3631      H3635   1.084       .  S
C3632      C3636   1.480       .  S
C3632      C3633   1.408       .  A
C3633      C3634   1.402       .  A
C3633     Br3645   1.917       .  S
C3634      H3637   1.083       .  S
C3636      C3638   1.405       .  A
C3636      C3642   1.407       .  A
C3638      C3639   1.403       .  A
C3638      H3643   1.083       .  S
C3639      C3640   1.408       .  A
C3639     Br3647   1.919       .  S
C3640      C3641   1.405       .  A
C3641      C3642   1.398       .  A
C3641      H3644   1.084       .  S
C3642     Br3648   1.920       .  S
C3649      C3650   1.413       .  A
C3649      C3654   1.408       .  A
C3650      C3651   1.397       .  A
C3650     Br3666   1.918       .  S
C3651      C3652   1.401       .  A
C3651      H3655   1.084       .  S
C3652      C3656   1.480       .  S
C3652      C3653   1.408       .  A
C3653      C3654   1.399       .  A
C3653     Br3665   1.919       .  S
C3654      H3657   1.083       .  S
C3656      C3658   1.399       .  A
C3656      C3662   1.410       .  A
C3658      C3659   1.399       .  A
C3658      H3663   1.084       .  S
C3659      C3660   1.418       .  A
C3659     Br3667   1.921       .  S
C3660      C3661   1.402       .  A
C3661      C3662   1.399       .  A
C3661      H3664   1.084       .  S
C3662     Br3668   1.919       .  S
C3669      C3670   1.409       .  A
C3669      C3674   1.406       .  A
C3670      C3671   1.394       .  A
C3670     Br3686   1.920       .  S
C3671      C3672   1.401       .  A
C3671      H3675   1.084       .  S
C3672      C3676   1.465       .  S
C3672      C3673   1.404       .  A
C3673      C3674   1.392       .  A
C3673     Br3685   1.920       .  S
C3674      H3677   1.084       .  S
C3676      C3678   1.398       .  A
C3676      C3682   1.406       .  A
C3678      C3679   1.396       .  A
C3678      H3683   1.084       .  S
C3679      C3680   1.413       .  A
C3679     Br3687   1.917       .  S
C3680      C3681   1.403       .  A
C3681      C3682   1.391       .  A
C3681      H3684   1.084       .  S
C3682     Br3688   1.921       .  S
C3689      C3690   1.422       .  A
C3689      C3694   1.408       .  A
C3690      C3691   1.395       .  A
C3690     Br3706   1.925       .  S
C3691      C3692   1.396       .  A
C3691      H3695   1.084       .  S
C3692      C3696   1.480       .  S
C3692      C3693   1.409       .  A
C3693      C3694   1.404       .  A
C3693     Br3705   1.918       .  S
C3694      H3697   1.083       .  S
C3696      C3698   1.403       .  A
C3696      C3702   1.410       .  A
C3698      C3699   1.401       .  A
C3698      H3703   1.083       .  S
C3699      C3700   1.410       .  A
C3699     Br3707   1.920       .  S
C3700      C3701   1.401       .  A
C3701      C3702   1.397       .  A
C3701      H3704   1.084       .  S
C3702     Br3708   1.919       .  S
C3709      C3710   1.421       .  A
C3709      C3714   1.411       .  A
C3710      C3711   1.407       .  A
C3710     Br3726   1.920   1_556  S
C3711      C3712   1.401       .  A
C3711      H3715   1.083       .  S
C3712      C3716   1.483       .  S
C3712      C3713   1.406       .  A
C3713      C3714   1.397       .  A
C3713     Br3725   1.923       .  S
C3714      H3717   1.083       .  S
C3716      C3718   1.402       .  A
C3716      C3722   1.407       .  A
C3718      C3719   1.401       .  A
C3718      H3723   1.083       .  S
C3719      C3720   1.414       .  A
C3719     Br3727   1.915       .  S
C3720      C3721   1.407       .  A
C3721      C3722   1.401       .  A
C3721      H3724   1.082       .  S
C3722     Br3728   1.916       .  S
C3729      C3730   1.409       .  A
C3729      C3734   1.403       .  A
C3730      C3731   1.399       .  A
C3730     Br3746   1.918       .  S
C3731      C3732   1.402       .  A
C3731      H3735   1.084       .  S
C3732      C3736   1.481       .  S
C3732      C3733   1.408       .  A
C3733      C3734   1.400       .  A
C3733     Br3745   1.918       .  S
C3734      H3737   1.084       .  S
C3736      C3738   1.397       .  A
C3736      C3742   1.413       .  A
C3738      C3739   1.396       .  A
C3738      H3743   1.084       .  S
C3739      C3740   1.418       .  A
C3739     Br3747   1.921       .  S
C3740      C3741   1.403       .  A
C3741      C3742   1.403       .  A
C3741      H3744   1.084       .  S
C3742     Br3748   1.919       .  S
C3749      C3750   1.412       .  A
C3749      C3754   1.406       .  A
C3750      C3751   1.402       .  A
C3750     Br3766   1.920       .  S
C3751      C3752   1.403       .  A
C3751      H3755   1.083       .  S
C3752      C3756   1.483       .  S
C3752      C3753   1.408       .  A
C3753      C3754   1.401       .  A
C3753     Br3765   1.918       .  S
C3754      H3757   1.084       .  S
C3756      C3758   1.404       .  A
C3756      C3762   1.406       .  A
C3758      C3759   1.403       .  A
C3758      H3763   1.083       .  S
C3759      C3760   1.414       .  A
C3759     Br3767   1.921       .  S
C3760      C3761   1.409       .  A
C3761      C3762   1.399       .  A
C3761      H3764   1.083       .  S
C3762     Br3768   1.919       .  S
C3769      C3770   1.412       .  A
C3769      C3774   1.403       .  A
C3770      C3771   1.398       .  A
C3770     Br3786   1.922       .  S
C3771      C3772   1.402       .  A
C3771      H3775   1.084       .  S
C3772      C3776   1.483       .  S
C3772      C3773   1.411       .  A
C3773      C3774   1.403       .  A
C3773     Br3785   1.918       .  S
C3774      H3777   1.084       .  S
C3776      C3778   1.401       .  A
C3776      C3782   1.407       .  A
C3778      C3779   1.399       .  A
C3778      H3783   1.084       .  S
C3779      C3780   1.416       .  A
C3779     Br3787   1.920       .  S
C3780      C3781   1.409       .  A
C3781      C3782   1.402       .  A
C3781      H3784   1.084       .  S
C3782     Br3788   1.918       .  S
C3789      C3790   1.415       .  A
C3789      C3794   1.404       .  A
C3790      C3791   1.405       .  A
C3790     Br3806   1.919       .  S
C3791      C3792   1.403   1_556  A
C3791      H3795   1.083       .  S
C3792      C3796   1.479       .  S
C3792      C3793   1.407   1_554  A
C3793      C3794   1.391       .  A
C3793     Br3805   1.921   1_556  S
C3794      H3797   1.082       .  S
C3796      C3798   1.403       .  A
C3796      C3802   1.407       .  A
C3798      C3799   1.402       .  A
C3798      H3803   1.083       .  S
C3799      C3800   1.414       .  A
C3799     Br3807   1.920       .  S
C3800      C3801   1.407       .  A
C3801      C3802   1.395       .  A
C3801      H3804   1.084       .  S
C3802     Br3808   1.921       .  S
C3809      C3810   1.416       .  A
C3809      C3814   1.406       .  A
C3810      C3811   1.394       .  A
C3810     Br3826   1.923       .  S
C3811      C3812   1.400       .  A
C3811      H3815   1.084       .  S
C3812      C3816   1.481       .  S
C3812      C3813   1.409       .  A
C3813      C3814   1.403       .  A
C3813     Br3825   1.919       .  S
C3814      H3817   1.083       .  S
C3816      C3818   1.403       .  A
C3816      C3822   1.408       .  A
C3818      C3819   1.400       .  A
C3818      H3823   1.083       .  S
C3819      C3820   1.415       .  A
C3819     Br3827   1.922       .  S
C3820      C3821   1.407       .  A
C3821      C3822   1.396       .  A
C3821      H3824   1.084       .  S
C3822     Br3828   1.921       .  S
C3829      C3830   1.407       .  A
C3829      C3834   1.404       .  A
C3830      C3831   1.401       .  A
C3830     Br3846   1.917       .  S
C3831      C3832   1.404       .  A
C3831      H3835   1.084       .  S
C3832      C3836   1.478       .  S
C3832      C3833   1.408       .  A
C3833      C3834   1.397       .  A
C3833     Br3845   1.920       .  S
C3834      H3837   1.084       .  S
C3836      C3838   1.404       .  A
C3836      C3842   1.405       .  A
C3838      C3839   1.402       .  A
C3838      H3843   1.084       .  S
C3839      C3840   1.411       .  A
C3839     Br3847   1.919       .  S
C3840      C3841   1.407       .  A
C3841      C3842   1.396       .  A
C3841      H3844   1.084       .  S
C3842     Br3848   1.919       .  S
C3849      C3850   1.412       .  A
C3849      C3854   1.408       .  A
C3850      C3851   1.398       .  A
C3850     Br3866   1.920       .  S
C3851      C3852   1.401       .  A
C3851      H3855   1.084       .  S
C3852      C3856   1.473       .  S
C3852      C3853   1.404       .  A
C3853      C3854   1.398       .  A
C3853     Br3865   1.918       .  S
C3854      H3857   1.084       .  S
C3856      C3858   1.400       .  A
C3856      C3862   1.405       .  A
C3858      C3859   1.398       .  A
C3858      H3863   1.084       .  S
C3859      C3860   1.413       .  A
C3859     Br3867   1.921   1_556  S
C3860      C3861   1.404       .  A
C3861      C3862   1.398       .  A
C3861      H3864   1.084       .  S
C3862     Br3868   1.918       .  S
C3869      C3870   1.414       .  A
C3869      C3874   1.404       .  A
C3870      C3871   1.398       .  A
C3870     Br3886   1.922       .  S
C3871      C3872   1.401       .  A
C3871      H3875   1.084       .  S
C3872      C3876   1.481       .  S
C3872      C3873   1.409       .  A
C3873      C3874   1.401       .  A
C3873     Br3885   1.918       .  S
C3874      H3877   1.084       .  S
C3876      C3878   1.402       .  A
C3876      C3882   1.405       .  A
C3878      C3879   1.402       .  A
C3878      H3883   1.084       .  S
C3879      C3880   1.419       .  A
C3879     Br3887   1.922       .  S
C3880      C3881   1.409       .  A
C3881      C3882   1.396       .  A
C3881      H3884   1.083       .  S
C3882     Br3888   1.920       .  S
C3889      C3890   1.412       .  A
C3889      C3894   1.405       .  A
C3890      C3891   1.402       .  A
C3890     Br3906   1.921       .  S
C3891      C3892   1.403       .  A
C3891      H3895   1.084       .  S
C3892      C3896   1.480       .  S
C3892      C3893   1.406       .  A
C3893      C3894   1.401       .  A
C3893     Br3905   1.918       .  S
C3894      H3897   1.084       .  S
C3896      C3898   1.401       .  A
C3896      C3902   1.407       .  A
C3898      C3899   1.401       .  A
C3898      H3903   1.084       .  S
C3899      C3900   1.414       .  A
C3899     Br3907   1.920       .  S
C3900      C3901   1.407       .  A
C3901      C3902   1.401       .  A
C3901      H3904   1.084       .  S
C3902     Br3908   1.918       .  S
C3909      C3910   1.413       .  A
C3909      C3914   1.407       .  A
C3910      C3911   1.404       .  A
C3910     Br3926   1.919       .  S
C3911      C3912   1.404       .  A
C3911      H3915   1.083       .  S
C3912      C3916   1.482       .  S
C3912      C3913   1.406       .  A
C3913      C3914   1.397       .  A
C3913     Br3925   1.919       .  S
C3914      H3917   1.084       .  S
C3916      C3918   1.400       .  A
C3916      C3922   1.407       .  A
C3918      C3919   1.402       .  A
C3918      H3923   1.083       .  S
C3919      C3920   1.419       .  A
C3919     Br3927   1.922       .  S
C3920      C3921   1.407       .  A
C3921      C3922   1.399       .  A
C3921      H3924   1.083       .  S
C3922     Br3928   1.918       .  S
C3929      C3930   1.419   1_556  A
C3929      C3934   1.412       .  A
C3930      C3931   1.400       .  A
C3930     Br3946   1.919   1_554  S
C3931      C3932   1.399       .  A
C3931      H3935   1.084       .  S
C3932      C3936   1.475       .  S
C3932      C3933   1.402       .  A
C3933      C3934   1.398   1_554  A
C3933     Br3945   1.918       .  S
C3934      H3937   1.083       .  S
C3936      C3938   1.398       .  A
C3936      C3942   1.404       .  A
C3938      C3939   1.399       .  A
C3938      H3943   1.084       .  S
C3939      C3940   1.420       .  A
C3939     Br3947   1.923       .  S
C3940      C3941   1.410       .  A
C3941      C3942   1.398       .  A
C3941      H3944   1.083       .  S
C3942     Br3948   1.919       .  S
C3949      C3950   1.418       .  A
C3949      C3954   1.408       .  A
C3950      C3951   1.409       .  A
C3950     Br3966   1.920       .  S
C3951      C3952   1.406       .  A
C3951      H3955   1.083       .  S
C3952      C3956   1.500       .  S
C3952      C3953   1.411       .  A
C3953      C3954   1.404       .  A
C3953     Br3965   1.919       .  S
C3954      H3957   1.083       .  S
C3956      C3958   1.404       .  A
C3956      C3962   1.413       .  A
C3958      C3959   1.403       .  A
C3958      H3963   1.084       .  S
C3959      C3960   1.417       .  A
C3959     Br3967   1.922       .  S
C3960      C3961   1.409       .  A
C3961      C3962   1.411       .  A
C3961      H3964   1.083       .  S
C3962     Br3968   1.917       .  S
C3969      C3970   1.409       .  A
C3969      C3974   1.409       .  A
C3970      C3971   1.406       .  A
C3970     Br3986   1.911       .  S
C3971      C3972   1.408       .  A
C3971      H3975   1.083       .  S
C3972      C3976   1.492       .  S
C3972      C3973   1.408       .  A
C3973      C3974   1.399       .  A
C3973     Br3985   1.920       .  S
C3974      H3977   1.084       .  S
C3976      C3978   1.405       .  A
C3976      C3982   1.410       .  A
C3978      C3979   1.400   1_556  A
C3978      H3983   1.083   1_556  S
C3979      C3980   1.409       .  A
C3979     Br3987   1.916       .  S
C3980      C3981   1.409   1_554  A
C3981      C3982   1.402       .  A
C3981      H3984   1.084       .  S
C3982     Br3988   1.920       .  S
C3989      C3990   1.407       .  A
C3989      C3994   1.401       .  A
C3990      C3991   1.400       .  A
C3990     Br4006   1.920       .  S
C3991      C3992   1.409       .  A
C3991      H3995   1.083       .  S
C3992      C3996   1.493       .  S
C3992      C3993   1.416       .  A
C3993      C3994   1.397       .  A
C3993     Br4005   1.923       .  S
C3994      H3997   1.084       .  S
C3996      C3998   1.402       .  A
C3996      C4002   1.419       .  A
C3998      C3999   1.390       .  A
C3998      H4003   1.082       .  S
C3999      C4000   1.408       .  A
C3999     Br4007   1.914       .  S
C4000      C4001   1.403       .  A
C4001      C4002   1.405       .  A
C4001      H4004   1.084       .  S
C4002     Br4008   1.920       .  S
C4009      C4010   1.410       .  A
C4009      C4014   1.410       .  A
C4010      C4011   1.399       .  A
C4010     Br4026   1.920       .  S
C4011      C4012   1.405       .  A
C4011      H4015   1.083       .  S
C4012      C4016   1.478       .  S
C4012      C4013   1.406       .  A
C4013      C4014   1.391       .  A
C4013     Br4025   1.921       .  S
C4014      H4017   1.084       .  S
C4016      C4018   1.410       .  A
C4016      C4022   1.406       .  A
C4018      C4019   1.399       .  A
C4018      H4023   1.083       .  S
C4019      C4020   1.402       .  A
C4019     Br4027   1.918       .  S
C4020      C4021   1.403       .  A
C4021      C4022   1.392       .  A
C4021      H4024   1.084       .  S
C4022     Br4028   1.920       .  S
C4029      C4030   1.413       .  A
C4029      C4034   1.410       .  A
C4030      C4031   1.407       .  A
C4030     Br4046   1.919       .  S
C4031      C4032   1.407       .  A
C4031      H4035   1.084       .  S
C4032      C4036   1.489       .  S
C4032      C4033   1.406       .  A
C4033      C4034   1.398       .  A
C4033     Br4045   1.919       .  S
C4034      H4037   1.083       .  S
C4036      C4038   1.406       .  A
C4036      C4042   1.410       .  A
C4038      C4039   1.405       .  A
C4038      H4043   1.083       .  S
C4039      C4040   1.409       .  A
C4039     Br4047   1.916       .  S
C4040      C4041   1.403       .  A
C4041      C4042   1.400       .  A
C4041      H4044   1.081       .  S
C4042     Br4048   1.917       .  S
C4049      C4050   1.421       .  A
C4049      C4054   1.409       .  A
C4050      C4051   1.398       .  A
C4050     Br4066   1.924       .  S
C4051      C4052   1.397       .  A
C4051      H4055   1.084       .  S
C4052      C4056   1.478       .  S
C4052      C4053   1.407       .  A
C4053      C4054   1.400       .  A
C4053     Br4065   1.918       .  S
C4054      H4057   1.083       .  S
C4056      C4058   1.398       .  A
C4056      C4062   1.406       .  A
C4058      C4059   1.400       .  A
C4058      H4063   1.084       .  S
C4059      C4060   1.421       .  A
C4059     Br4067   1.923       .  S
C4060      C4061   1.409       .  A
C4061      C4062   1.398       .  A
C4061      H4064   1.083       .  S
C4062     Br4068   1.920       .  S
C4069      C4070   1.416   1_556  A
C4069      C4074   1.406   1_556  A
C4070      C4071   1.392       .  A
C4070     Br4086   1.923   1_554  S
C4071      C4072   1.397       .  A
C4071      H4075   1.084       .  S
C4072      C4076   1.473       .  S
C4072      C4073   1.407       .  A
C4073      C4074   1.401       .  A
C4073     Br4085   1.918       .  S
C4074      H4077   1.083   1_554  S
C4076      C4078   1.402       .  A
C4076      C4082   1.405       .  A
C4078      C4079   1.402       .  A
C4078      H4083   1.084       .  S
C4079      C4080   1.416       .  A
C4079     Br4087   1.921       .  S
C4080      C4081   1.406       .  A
C4081      C4082   1.391       .  A
C4081      H4084   1.084       .  S
C4082     Br4088   1.922       .  S
C4089      C4090   1.419       .  A
C4089      C4094   1.411       .  A
C4090      C4091   1.405       .  A
C4090     Br4106   1.921       .  S
C4091      C4092   1.404       .  A
C4091      H4095   1.084       .  S
C4092      C4096   1.492       .  S
C4092      C4093   1.408       .  A
C4093      C4094   1.403       .  A
C4093     Br4105   1.919       .  S
C4094      H4097   1.083       .  S
C4096      C4098   1.402       .  A
C4096      C4102   1.414       .  A
C4098      C4099   1.400       .  A
C4098      H4103   1.084       .  S
C4099      C4100   1.412       .  A
C4099     Br4107   1.920       .  S
C4100      C4101   1.404       .  A
C4101      C4102   1.407       .  A
C4101      H4104   1.083       .  S
C4102     Br4108   1.918       .  S
C4109      C4110   1.413       .  A
C4109      C4114   1.408       .  A
C4110      C4111   1.404       .  A
C4110     Br4126   1.915       .  S
C4111      C4112   1.406       .  A
C4111      H4115   1.083       .  S
C4112      C4116   1.492       .  S
C4112      C4113   1.410       .  A
C4113      C4114   1.400       .  A
C4113     Br4125   1.920   1_556  S
C4114      H4117   1.084       .  S
C4116      C4118   1.400       .  A
C4116      C4122   1.416       .  A
C4118      C4119   1.399       .  A
C4118      H4123   1.084       .  S
C4119      C4120   1.419   1_556  A
C4119     Br4127   1.921       .  S
C4120      C4121   1.404   1_554  A
C4121      C4122   1.406       .  A
C4121      H4124   1.084   1_556  S
C4122     Br4128   1.920       .  S
C4129      C4130   1.409       .  A
C4129      C4134   1.402       .  A
C4130      C4131   1.403       .  A
C4130     Br4146   1.919       .  S
C4131      C4132   1.407       .  A
C4131      H4135   1.083       .  S
C4132      C4136   1.484       .  S
C4132      C4133   1.410       .  A
C4133      C4134   1.395       .  A
C4133     Br4145   1.920       .  S
C4134      H4137   1.084       .  S
C4136      C4138   1.399       .  A
C4136      C4142   1.410       .  A
C4138      C4139   1.397       .  A
C4138      H4143   1.084       .  S
C4139      C4140   1.421       .  A
C4139     Br4147   1.924       .  S
C4140      C4141   1.407       .  A
C4141      C4142   1.402       .  A
C4141      H4144   1.083       .  S
C4142     Br4148   1.919       .  S
C4149      C4150   1.408       .  A
C4149      C4154   1.401       .  A
C4150      C4151   1.404       .  A
C4150     Br4166   1.917       .  S
C4151      C4152   1.405       .  A
C4151      H4155   1.083       .  S
C4152      C4156   1.471       .  S
C4152      C4153   1.406       .  A
C4153      C4154   1.389       .  A
C4153     Br4165   1.921       .  S
C4154      H4157   1.084       .  S
C4156      C4158   1.396       .  A
C4156      C4162   1.405       .  A
C4158      C4159   1.398       .  A
C4158      H4163   1.084       .  S
C4159      C4160   1.423       .  A
C4159     Br4167   1.921       .  S
C4160      C4161   1.405       .  A
C4161      C4162   1.396       .  A
C4161      H4164   1.084       .  S
C4162     Br4168   1.919       .  S
C4169      C4170   1.403       .  A
C4169      C4174   1.399       .  A
C4170      C4171   1.396       .  A
C4170     Br4186   1.920       .  S
C4171      C4172   1.405       .  A
C4171      H4175   1.083       .  S
C4172      C4176   1.478       .  S
C4172      C4173   1.411       .  A
C4173      C4174   1.397       .  A
C4173     Br4185   1.919       .  S
C4174      H4177   1.084       .  S
C4176      C4178   1.402       .  A
C4176      C4182   1.408       .  A
C4178      C4179   1.396   1_554  A
C4178      H4183   1.083       .  S
C4179      C4180   1.413       .  A
C4179     Br4187   1.922       .  S
C4180      C4181   1.406       .  A
C4181      C4182   1.397   1_556  A
C4181      H4184   1.083       .  S
C4182     Br4188   1.920       .  S
C4189      C4190   1.414       .  A
C4189      C4194   1.406       .  A
C4190      C4191   1.399       .  A
C4190     Br4206   1.921       .  S
C4191      C4192   1.401       .  A
C4191      H4195   1.084       .  S
C4192      C4196   1.482       .  S
C4192      C4193   1.409       .  A
C4193      C4194   1.402       .  A
C4193     Br4205   1.918       .  S
C4194      H4197   1.084       .  S
C4196      C4198   1.400       .  A
C4196      C4202   1.407       .  A
C4198      C4199   1.398       .  A
C4198      H4203   1.084       .  S
C4199      C4200   1.417       .  A
C4199     Br4207   1.924       .  S
C4200      C4201   1.406       .  A
C4201      C4202   1.404       .  A
C4201      H4204   1.083       .  S
C4202     Br4208   1.917       .  S
C4209      C4210   1.418       .  A
C4209      C4214   1.407       .  A
C4210      C4211   1.398       .  A
C4210     Br4226   1.921       .  S
C4211      C4212   1.398       .  A
C4211      H4215   1.084       .  S
C4212      C4216   1.468       .  S
C4212      C4213   1.404       .  A
C4213      C4214   1.393       .  A
C4213     Br4225   1.919       .  S
C4214      H4217   1.083       .  S
C4216      C4218   1.398       .  A
C4216      C4222   1.402       .  A
C4218      C4219   1.397       .  A
C4218      H4223   1.084       .  S
C4219      C4220   1.420       .  A
C4219     Br4227   1.925       .  S
C4220      C4221   1.408       .  A
C4221      C4222   1.395       .  A
C4221      H4224   1.083       .  S
C4222     Br4228   1.918       .  S
C4229      C4230   1.422       .  A
C4229      C4234   1.408       .  A
C4230      C4231   1.405       .  A
C4230     Br4246   1.922       .  S
C4231      C4232   1.401       .  A
C4231      H4235   1.083       .  S
C4232      C4236   1.483       .  S
C4232      C4233   1.408       .  A
C4233      C4234   1.396       .  A
C4233     Br4245   1.922       .  S
C4234      H4237   1.083       .  S
C4236      C4238   1.402       .  A
C4236      C4242   1.408       .  A
C4238      C4239   1.399       .  A
C4238      H4243   1.084       .  S
C4239      C4240   1.413       .  A
C4239     Br4247   1.921       .  S
C4240      C4241   1.408       .  A
C4241      C4242   1.402       .  A
C4241      H4244   1.083       .  S
C4242     Br4248   1.917       .  S
C4249      C4250   1.425       .  A
C4249      C4254   1.408       .  A
C4250      C4251   1.398       .  A
C4250     Br4266   1.926       .  S
C4251      C4252   1.398       .  A
C4251      H4255   1.084       .  S
C4252      C4256   1.498   1_655  S
C4252      C4253   1.416       .  A
C4253      C4254   1.409       .  A
C4253     Br4265   1.920   1_655  S
C4254      H4257   1.083       .  S
C4256      C4258   1.407       .  A
C4256      C4262   1.417       .  A
C4258      C4259   1.403       .  A
C4258      H4263   1.083       .  S
C4259      C4260   1.407       .  A
C4259     Br4267   1.914       .  S
C4260      C4261   1.402       .  A
C4261      C4262   1.402       .  A
C4261      H4264   1.083       .  S
C4262     Br4268   1.922   1_455  S
C4269      C4270   1.411       .  A
C4269      C4274   1.401       .  A
C4270      C4271   1.399       .  A
C4270     Br4286   1.921       .  S
C4271      C4272   1.402       .  A
C4271      H4275   1.084       .  S
C4272      C4276   1.478       .  S
C4272      C4273   1.411       .  A
C4273      C4274   1.398       .  A
C4273     Br4285   1.921   1_655  S
C4274      H4277   1.084       .  S
C4276      C4278   1.408   1_655  A
C4276      C4282   1.402   1_655  A
C4278      C4279   1.405       .  A
C4278      H4283   1.083   1_455  S
C4279      C4280   1.407       .  A
C4279     Br4287   1.917       .  S
C4280      C4281   1.407       .  A
C4281      C4282   1.393       .  A
C4281      H4284   1.084       .  S
C4282     Br4288   1.919       .  S
C4289      C4290   1.419       .  A
C4289      C4294   1.411       .  A
C4290      C4291   1.403       .  A
C4290     Br4306   1.921       .  S
C4291      C4292   1.403   1_554  A
C4291      H4295   1.084   1_554  S
C4292      C4296   1.482       .  S
C4292      C4293   1.404   1_556  A
C4293      C4294   1.397       .  A
C4293     Br4305   1.919       .  S
C4294      H4297   1.083       .  S
C4296      C4298   1.403       .  A
C4296      C4302   1.404       .  A
C4298      C4299   1.403       .  A
C4298      H4303   1.084       .  S
C4299      C4300   1.418       .  A
C4299     Br4307   1.920       .  S
C4300      C4301   1.413       .  A
C4301      C4302   1.399       .  A
C4301      H4304   1.083       .  S
C4302     Br4308   1.919       .  S
C4309      C4310   1.422       .  A
C4309      C4314   1.409       .  A
C4310      C4311   1.399       .  A
C4310     Br4326   1.924       .  S
C4311      C4312   1.398       .  A
C4311      H4315   1.084       .  S
C4312      C4316   1.477       .  S
C4312      C4313   1.405       .  A
C4313      C4314   1.399       .  A
C4313     Br4325   1.918       .  S
C4314      H4317   1.083       .  S
C4316      C4318   1.397       .  A
C4316      C4322   1.405       .  A
C4318      C4319   1.399       .  A
C4318      H4323   1.084       .  S
C4319      C4320   1.423       .  A
C4319     Br4327   1.924       .  S
C4320      C4321   1.409       .  A
C4321      C4322   1.400       .  A
C4321      H4324   1.083       .  S
C4322     Br4328   1.919       .  S
C4329      C4330   1.423       .  A
C4329      C4334   1.404       .  A
C4330      C4331   1.399       .  A
C4330     Br4346   1.922       .  S
C4331      C4332   1.400       .  A
C4331      H4335   1.083       .  S
C4332      C4336   1.494   1_655  S
C4332      C4333   1.416       .  A
C4333      C4334   1.404       .  A
C4333     Br4345   1.920   1_655  S
C4334      H4337   1.084       .  S
C4336      C4338   1.406       .  A
C4336      C4342   1.416       .  A
C4338      C4339   1.401       .  A
C4338      H4343   1.083       .  S
C4339      C4340   1.408       .  A
C4339     Br4347   1.914       .  S
C4340      C4341   1.403       .  A
C4341      C4342   1.401       .  A
C4341      H4344   1.082   1_554  S
C4342     Br4348   1.922   1_454  S
C4349      C4350   1.410       .  A
C4349      C4354   1.408       .  A
C4350      C4351   1.403       .  A
C4350     Br4366   1.918       .  S
C4351      C4352   1.406       .  A
C4351      H4355   1.084   1_455  S
C4352      C4356   1.479   1_455  S
C4352      C4353   1.404       .  A
C4353      C4354   1.394       .  A
C4353     Br4365   1.921       .  S
C4354      H4357   1.084       .  S
C4356      C4358   1.403       .  A
C4356      C4362   1.410       .  A
C4358      C4359   1.400       .  A
C4358      H4363   1.083       .  S
C4359      C4360   1.410       .  A
C4359     Br4367   1.919       .  S
C4360      C4361   1.403       .  A
C4361      C4362   1.397       .  A
C4361      H4364   1.084       .  S
C4362     Br4368   1.922   1_655  S
C4369      C4370   1.410       .  A
C4369      C4374   1.407       .  A
C4370      C4371   1.401       .  A
C4370     Br4386   1.919       .  S
C4371      C4372   1.406       .  A
C4371      H4375   1.083       .  S
C4372      C4376   1.489       .  S
C4372      C4373   1.411       .  A
C4373      C4374   1.400       .  A
C4373     Br4385   1.921       .  S
C4374      H4377   1.083       .  S
C4376      C4378   1.402       .  A
C4376      C4382   1.410       .  A
C4378      C4379   1.400       .  A
C4378      H4383   1.083       .  S
C4379      C4380   1.419       .  A
C4379     Br4387   1.923       .  S
C4380      C4381   1.407       .  A
C4381      C4382   1.402       .  A
C4381      H4384   1.083       .  S
C4382     Br4388   1.920       .  S
C4389      C4390   1.418       .  A
C4389      C4394   1.406       .  A
C4390      C4391   1.402       .  A
C4390     Br4406   1.923       .  S
C4391      C4392   1.401       .  A
C4391      H4395   1.083       .  S
C4392      C4396   1.484       .  S
C4392      C4393   1.408       .  A
C4393      C4394   1.402       .  A
C4393     Br4405   1.917       .  S
C4394      H4397   1.083       .  S
C4396      C4398   1.403       .  A
C4396      C4402   1.409       .  A
C4398      C4399   1.401       .  A
C4398      H4403   1.084       .  S
C4399      C4400   1.411       .  A
C4399     Br4407   1.920       .  S
C4400      C4401   1.405       .  A
C4401      C4402   1.404       .  A
C4401      H4404   1.084       .  S
C4402     Br4408   1.918       .  S
C4409      C4410   1.413       .  A
C4409      C4414   1.407       .  A
C4410      C4411   1.397       .  A
C4410     Br4426   1.923       .  S
C4411      C4412   1.404       .  A
C4411      H4415   1.083       .  S
C4412      C4416   1.498       .  S
C4412      C4413   1.415       .  A
C4413      C4414   1.408       .  A
C4413     Br4425   1.919       .  S
C4414      H4417   1.083       .  S
C4416      C4418   1.411       .  A
C4416      C4422   1.411       .  A
C4418      C4419   1.404       .  A
C4418      H4423   1.080       .  S
C4419      C4420   1.406       .  A
C4419     Br4427   1.918       .  S
C4420      C4421   1.405       .  A
C4421      C4422   1.401       .  A
C4421      H4424   1.083       .  S
C4422     Br4428   1.920       .  S
C4429      C4430   1.408       .  A
C4429      C4434   1.407       .  A
C4430      C4431   1.392       .  A
C4430     Br4446   1.914       .  S
C4431      C4432   1.404       .  A
C4431      H4435   1.084       .  S
C4432      C4436   1.487       .  S
C4432      C4433   1.413       .  A
C4433      C4434   1.404       .  A
C4433     Br4445   1.921       .  S
C4434      H4437   1.083       .  S
C4436      C4438   1.398       .  A
C4436      C4442   1.413       .  A
C4438      C4439   1.387       .  A
C4438      H4443   1.084       .  S
C4439      C4440   1.421       .  A
C4439     Br4447   1.926       .  S
C4440      C4441   1.409       .  A
C4441      C4442   1.408       .  A
C4441      H4444   1.083       .  S
C4442     Br4448   1.918       .  S
C4449      C4450   1.418       .  A
C4449      C4454   1.406       .  A
C4450      C4451   1.403       .  A
C4450     Br4466   1.922       .  S
C4451      C4452   1.401       .  A
C4451      H4455   1.083       .  S
C4452      C4456   1.482       .  S
C4452      C4453   1.406       .  A
C4453      C4454   1.399       .  A
C4453     Br4465   1.918       .  S
C4454      H4457   1.084       .  S
C4456      C4458   1.404       .  A
C4456      C4462   1.405       .  A
C4458      C4459   1.403       .  A
C4458      H4463   1.083       .  S
C4459      C4460   1.411       .  A
C4459     Br4467   1.918       .  S
C4460      C4461   1.407       .  A
C4461      C4462   1.399       .  A
C4461      H4464   1.083       .  S
C4462     Br4468   1.918       .  S
C4469      C4470   1.412       .  A
C4469      C4474   1.407       .  A
C4470      C4471   1.406       .  A
C4470     Br4486   1.918       .  S
C4471      C4472   1.405       .  A
C4471      H4475   1.083       .  S
C4472      C4476   1.471       .  S
C4472      C4473   1.401       .  A
C4473      C4474   1.386       .  A
C4473     Br4485   1.922       .  S
C4474      H4477   1.084       .  S
C4476      C4478   1.400   1_554  A
C4476      C4482   1.408   1_554  A
C4478      C4479   1.396       .  A
C4478      H4483   1.084       .  S
C4479      C4480   1.411       .  A
C4479     Br4487   1.921       .  S
C4480      C4481   1.403       .  A
C4481      C4482   1.397       .  A
C4481      H4484   1.084       .  S
C4482     Br4488   1.919   1_556  S
C4489      C4490   1.419       .  A
C4489      C4494   1.408       .  A
C4490      C4491   1.405       .  A
C4490     Br4506   1.920       .  S
C4491      C4492   1.402       .  A
C4491      H4495   1.083       .  S
C4492      C4496   1.478       .  S
C4492      C4493   1.407       .  A
C4493      C4494   1.392       .  A
C4493     Br4505   1.923       .  S
C4494      H4497   1.083       .  S
C4496      C4498   1.403       .  A
C4496      C4502   1.409       .  A
C4498      C4499   1.398       .  A
C4498      H4503   1.084       .  S
C4499      C4500   1.408       .  A
C4499     Br4507   1.921       .  S
C4500      C4501   1.401       .  A
C4501      C4502   1.397       .  A
C4501      H4504   1.084       .  S
C4502     Br4508   1.919       .  S
C4509      C4510   1.410       .  A
C4509      C4514   1.404       .  A
C4510      C4511   1.397       .  A
C4510     Br4526   1.917       .  S
C4511      C4512   1.400       .  A
C4511      H4515   1.084       .  S
C4512      C4516   1.482       .  S
C4512      C4513   1.409       .  A
C4513      C4514   1.406       .  A
C4513     Br4525   1.916       .  S
C4514      H4517   1.083       .  S
C4516      C4518   1.401       .  A
C4516      C4522   1.407       .  A
C4518      C4519   1.404       .  A
C4518      H4523   1.083       .  S
C4519      C4520   1.419       .  A
C4519     Br4527   1.922       .  S
C4520      C4521   1.407       .  A
C4521      C4522   1.398       .  A
C4521      H4524   1.083       .  S
C4522     Br4528   1.919       .  S
C4529      C4530   1.424       .  A
C4529      C4534   1.411       .  A
C4530      C4531   1.402       .  A
C4530     Br4546   1.925       .  S
C4531      C4532   1.399       .  A
C4531      H4535   1.084       .  S
C4532      C4536   1.485       .  S
C4532      C4533   1.406       .  A
C4533      C4534   1.405       .  A
C4533     Br4545   1.917       .  S
C4534      H4537   1.083       .  S
C4536      C4538   1.402       .  A
C4536      C4542   1.405       .  A
C4538      C4539   1.405       .  A
C4538      H4543   1.083       .  S
C4539      C4540   1.420       .  A
C4539     Br4547   1.921       .  S
C4540      C4541   1.410       .  A
C4541      C4542   1.401       .  A
C4541      H4544   1.083       .  S
C4542     Br4548   1.918       .  S
C4549      C4550   1.414       .  A
C4549      C4554   1.409       .  A
C4550      C4551   1.399       .  A
C4550     Br4566   1.922       .  S
C4551      C4552   1.402       .  A
C4551      H4555   1.082       .  S
C4552      C4556   1.479       .  S
C4552      C4553   1.405       .  A
C4553      C4554   1.400       .  A
C4553     Br4565   1.918       .  S
C4554      H4557   1.083       .  S
C4556      C4558   1.401       .  A
C4556      C4562   1.406       .  A
C4558      C4559   1.404       .  A
C4558      H4563   1.083       .  S
C4559      C4560   1.418       .  A
C4559     Br4567   1.920       .  S
C4560      C4561   1.410       .  A
C4561      C4562   1.394       .  A
C4561      H4564   1.083       .  S
C4562     Br4568   1.923       .  S
C4569      C4570   1.407       .  A
C4569      C4574   1.410       .  A
C4570      C4571   1.404       .  A
C4570     Br4586   1.916       .  S
C4571      C4572   1.409       .  A
C4571      H4575   1.084       .  S
C4572      C4576   1.486       .  S
C4572      C4573   1.406       .  A
C4573      C4574   1.397       .  A
C4573     Br4585   1.921       .  S
C4574      H4577   1.084       .  S
C4576      C4578   1.405       .  A
C4576      C4582   1.412       .  A
C4578      C4579   1.400       .  A
C4578      H4583   1.083       .  S
C4579      C4580   1.412       .  A
C4579     Br4587   1.922       .  S
C4580      C4581   1.402       .  A
C4581      C4582   1.397       .  A
C4581      H4584   1.084       .  S
C4582     Br4588   1.917       .  S
C4589      C4590   1.406       .  A
C4589      C4594   1.408   1_556  A
C4590      C4591   1.405   1_556  A
C4590     Br4606   1.917       .  S
C4591      C4592   1.410       .  A
C4591      H4595   1.083       .  S
C4592      C4596   1.484       .  S
C4592      C4593   1.404       .  A
C4593      C4594   1.396       .  A
C4593     Br4605   1.919       .  S
C4594      H4597   1.084   1_554  S
C4596      C4598   1.405       .  A
C4596      C4602   1.407       .  A
C4598      C4599   1.400       .  A
C4598      H4603   1.083       .  S
C4599      C4600   1.409       .  A
C4599     Br4607   1.915       .  S
C4600      C4601   1.406       .  A
C4601      C4602   1.399       .  A
C4601      H4604   1.084       .  S
C4602     Br4608   1.914   1_554  S
C4609      C4610   1.419       .  A
C4609      C4614   1.410       .  A
C4610      C4611   1.400       .  A
C4610     Br4626   1.917       .  S
C4611      C4612   1.401       .  A
C4611      H4615   1.084       .  S
C4612      C4616   1.485       .  S
C4612      C4613   1.406       .  A
C4613      C4614   1.400       .  A
C4613     Br4625   1.918       .  S
C4614      H4617   1.083       .  S
C4616      C4618   1.404       .  A
C4616      C4622   1.408       .  A
C4618      C4619   1.401       .  A
C4618      H4623   1.083       .  S
C4619      C4620   1.414       .  A
C4619     Br4627   1.921       .  S
C4620      C4621   1.407       .  A
C4621      C4622   1.399       .  A
C4621      H4624   1.083       .  S
C4622     Br4628   1.919       .  S
C4629      C4630   1.418       .  A
C4629      C4634   1.408       .  A
C4630      C4631   1.403       .  A
C4630     Br4646   1.922       .  S
C4631      C4632   1.403       .  A
C4631      H4635   1.083       .  S
C4632      C4636   1.486       .  S
C4632      C4633   1.407       .  A
C4633      C4634   1.399       .  A
C4633     Br4645   1.919       .  S
C4634      H4637   1.083       .  S
C4636      C4638   1.402       .  A
C4636      C4642   1.406       .  A
C4638      C4639   1.402       .  A
C4638      H4643   1.084       .  S
C4639      C4640   1.419       .  A
C4639     Br4647   1.922       .  S
C4640      C4641   1.412       .  A
C4641      C4642   1.400       .  A
C4641      H4644   1.083       .  S
C4642     Br4648   1.919       .  S
C4649      C4650   1.409       .  A
C4649      C4654   1.406       .  A
C4650      C4651   1.397       .  A
C4650     Br4666   1.910       .  S
C4651      C4652   1.404       .  A
C4651      H4655   1.083       .  S
C4652      C4656   1.487       .  S
C4652      C4653   1.410       .  A
C4653      C4654   1.401       .  A
C4653     Br4665   1.920       .  S
C4654      H4657   1.084       .  S
C4656      C4658   1.398       .  A
C4656      C4662   1.414       .  A
C4658      C4659   1.395       .  A
C4658      H4663   1.084       .  S
C4659      C4660   1.422       .  A
C4659     Br4667   1.924       .  S
C4660      C4661   1.404       .  A
C4661      C4662   1.402       .  A
C4661      H4664   1.083       .  S
C4662     Br4668   1.921       .  S
C4669      C4670   1.421       .  A
C4669      C4674   1.407       .  A
C4670      C4671   1.396       .  A
C4670     Br4686   1.919       .  S
C4671      C4672   1.396       .  A
C4671      H4675   1.084       .  S
C4672      C4676   1.480       .  S
C4672      C4673   1.409       .  A
C4673      C4674   1.401       .  A
C4673     Br4685   1.919       .  S
C4674      H4677   1.083       .  S
C4676      C4678   1.405       .  A
C4676      C4682   1.407       .  A
C4678      C4679   1.400       .  A
C4678      H4683   1.084       .  S
C4679      C4680   1.407       .  A
C4679     Br4687   1.918       .  S
C4680      C4681   1.403       .  A
C4681      C4682   1.396       .  A
C4681      H4684   1.081       .  S
C4682     Br4688   1.919       .  S
C4689      C4690   1.408       .  A
C4689      C4694   1.403       .  A
C4690      C4691   1.401       .  A
C4690     Br4706   1.919       .  S
C4691      C4692   1.405       .  A
C4691      H4695   1.083       .  S
C4692      C4696   1.480       .  S
C4692      C4693   1.409       .  A
C4693      C4694   1.396       .  A
C4693     Br4705   1.920       .  S
C4694      H4697   1.084       .  S
C4696      C4698   1.401       .  A
C4696      C4702   1.405       .  A
C4698      C4699   1.401       .  A
C4698      H4703   1.084       .  S
C4699      C4700   1.417       .  A
C4699     Br4707   1.914       .  S
C4700      C4701   1.411       .  A
C4701      C4702   1.396       .  A
C4701      H4704   1.083       .  S
C4702     Br4708   1.921       .  S
C4709      C4710   1.422       .  A
C4709      C4714   1.406       .  A
C4710      C4711   1.396       .  A
C4710     Br4726   1.925       .  S
C4711      C4712   1.395       .  A
C4711      H4715   1.084       .  S
C4712      C4716   1.476       .  S
C4712      C4713   1.407       .  A
C4713      C4714   1.403       .  A
C4713     Br4725   1.917       .  S
C4714      H4717   1.083       .  S
C4716      C4718   1.399       .  A
C4716      C4722   1.408       .  A
C4718      C4719   1.397       .  A
C4718      H4723   1.084       .  S
C4719      C4720   1.413       .  A
C4719     Br4727   1.922   1_556  S
C4720      C4721   1.403       .  A
C4721      C4722   1.400       .  A
C4721      H4724   1.084       .  S
C4722     Br4728   1.918       .  S
C4729      C4730   1.415       .  A
C4729      C4734   1.401       .  A
C4730      C4731   1.396       .  A
C4730     Br4746   1.921       .  S
C4731      C4732   1.398       .  A
C4731      H4735   1.084       .  S
C4732      C4736   1.480       .  S
C4732      C4733   1.412       .  A
C4733      C4734   1.401       .  A
C4733     Br4745   1.918       .  S
C4734      H4737   1.084       .  S
C4736      C4738   1.397       .  A
C4736      C4742   1.409       .  A
C4738      C4739   1.395       .  A
C4738      H4743   1.084       .  S
C4739      C4740   1.421       .  A
C4739     Br4747   1.924       .  S
C4740      C4741   1.407       .  A
C4741      C4742   1.402       .  A
C4741      H4744   1.083       .  S
C4742     Br4748   1.918       .  S
C4749      C4750   1.409       .  A
C4749      C4754   1.407       .  A
C4750      C4751   1.410       .  A
C4750     Br4766   1.917       .  S
C4751      C4752   1.410       .  A
C4751      H4755   1.083       .  S
C4752      C4756   1.490       .  S
C4752      C4753   1.406       .  A
C4753      C4754   1.396       .  A
C4753     Br4765   1.920       .  S
C4754      H4757   1.084       .  S
C4756      C4758   1.404       .  A
C4756      C4762   1.412       .  A
C4758      C4759   1.405       .  A
C4758      H4763   1.083       .  S
C4759      C4760   1.413       .  A
C4759     Br4767   1.920       .  S
C4760      C4761   1.403   1_554  A
C4761      C4762   1.401   1_556  A
C4761      H4764   1.083       .  S
C4762     Br4768   1.921   1_554  S
C4769      C4770   1.415       .  A
C4769      C4774   1.408       .  A
C4770      C4771   1.404       .  A
C4770     Br4786   1.919       .  S
C4771      C4772   1.403       .  A
C4771      H4775   1.084       .  S
C4772      C4776   1.482       .  S
C4772      C4773   1.406       .  A
C4773      C4774   1.397       .  A
C4773     Br4785   1.920       .  S
C4774      H4777   1.084       .  S
C4776      C4778   1.402       .  A
C4776      C4782   1.408       .  A
C4778      C4779   1.401       .  A
C4778      H4783   1.084       .  S
C4779      C4780   1.413       .  A
C4779     Br4787   1.921       .  S
C4780      C4781   1.405       .  A
C4781      C4782   1.402       .  A
C4781      H4784   1.084       .  S
C4782     Br4788   1.918       .  S
C4789      C4790   1.411       .  A
C4789      C4794   1.406       .  A
C4790      C4791   1.403       .  A
C4790     Br4806   1.919       .  S
C4791      C4792   1.405       .  A
C4791      H4795   1.084       .  S
C4792      C4796   1.483       .  S
C4792      C4793   1.407       .  A
C4793      C4794   1.396       .  A
C4793     Br4805   1.920       .  S
C4794      H4797   1.084       .  S
C4796      C4798   1.402       .  A
C4796      C4802   1.407       .  A
C4798      C4799   1.398       .  A
C4798      H4803   1.084       .  S
C4799      C4800   1.415       .  A
C4799     Br4807   1.920       .  S
C4800      C4801   1.408       .  A
C4801      C4802   1.401       .  A
C4801      H4804   1.083       .  S
C4802     Br4808   1.918       .  S
C4809      C4810   1.406       .  A
C4809      C4814   1.399       .  A
C4810      C4811   1.400       .  A
C4810     Br4826   1.919       .  S
C4811      C4812   1.407       .  A
C4811      H4815   1.083       .  S
C4812      C4816   1.489       .  S
C4812      C4813   1.415       .  A
C4813      C4814   1.399       .  A
C4813     Br4825   1.920       .  S
C4814      H4817   1.084       .  S
C4816      C4818   1.404       .  A
C4816      C4822   1.411       .  A
C4818      C4819   1.403       .  A
C4818      H4823   1.083       .  S
C4819      C4820   1.419       .  A
C4819     Br4827   1.923       .  S
C4820      C4821   1.407       .  A
C4821      C4822   1.396       .  A
C4821      H4824   1.083       .  S
C4822     Br4828   1.922       .  S
C4829      C4830   1.411       .  A
C4829      C4834   1.408       .  A
C4830      C4831   1.404       .  A
C4830     Br4846   1.918       .  S
C4831      C4832   1.404       .  A
C4831      H4835   1.084       .  S
C4832      C4836   1.491       .  S
C4832      C4833   1.410       .  A
C4833      C4834   1.406       .  A
C4833     Br4845   1.918       .  S
C4834      H4837   1.083       .  S
C4836      C4838   1.405       .  A
C4836      C4842   1.408       .  A
C4838      C4839   1.408       .  A
C4838      H4843   1.083       .  S
C4839      C4840   1.416       .  A
C4839     Br4847   1.920       .  S
C4840      C4841   1.407       .  A
C4841      C4842   1.402       .  A
C4841      H4844   1.083       .  S
C4842     Br4848   1.919       .  S
C4849      C4850   1.414       .  A
C4849      C4854   1.408       .  A
C4850      C4851   1.402       .  A
C4850     Br4866   1.922       .  S
C4851      C4852   1.404       .  A
C4851      H4855   1.084       .  S
C4852      C4856   1.481       .  S
C4852      C4853   1.405       .  A
C4853      C4854   1.397       .  A
C4853     Br4865   1.918       .  S
C4854      H4857   1.083       .  S
C4856      C4858   1.400       .  A
C4856      C4862   1.408       .  A
C4858      C4859   1.403       .  A
C4858      H4863   1.084       .  S
C4859      C4860   1.419       .  A
C4859     Br4867   1.920       .  S
C4860      C4861   1.409       .  A
C4861      C4862   1.397       .  A
C4861      H4864   1.083       .  S
C4862     Br4868   1.923       .  S
C4869      C4870   1.419       .  A
C4869      C4874   1.408       .  A
C4870      C4871   1.408       .  A
C4870     Br4886   1.921       .  S
C4871      C4872   1.405       .  A
C4871      H4875   1.083       .  S
C4872      C4876   1.495       .  S
C4872      C4873   1.410       .  A
C4873      C4874   1.403       .  A
C4873     Br4885   1.919       .  S
C4874      H4877   1.083       .  S
C4876      C4878   1.404       .  A
C4876      C4882   1.412       .  A
C4878      C4879   1.406       .  A
C4878      H4883   1.084       .  S
C4879      C4880   1.414       .  A
C4879     Br4887   1.914       .  S
C4880      C4881   1.407       .  A
C4881      C4882   1.406       .  A
C4881      H4884   1.084       .  S
C4882     Br4888   1.918       .  S
C4889      C4890   1.412       .  A
C4889      C4894   1.407       .  A
C4890      C4891   1.405       .  A
C4890     Br4906   1.919       .  S
C4891      C4892   1.404       .  A
C4891      H4895   1.083       .  S
C4892      C4896   1.489       .  S
C4892      C4893   1.409       .  A
C4893      C4894   1.404       .  A
C4893     Br4905   1.918       .  S
C4894      H4897   1.083       .  S
C4896      C4898   1.404       .  A
C4896      C4902   1.409       .  A
C4898      C4899   1.405       .  A
C4898      H4903   1.083       .  S
C4899      C4900   1.413       .  A
C4899     Br4907   1.920       .  S
C4900      C4901   1.406       .  A
C4901      C4902   1.403       .  A
C4901      H4904   1.084       .  S
C4902     Br4908   1.917       .  S
C4909      C4910   1.406       .  A
C4909      C4914   1.404       .  A
C4910      C4911   1.404       .  A
C4910     Br4926   1.917       .  S
C4911      C4912   1.410       .  A
C4911      H4915   1.083   1_655  S
C4912      C4916   1.482   1_655  S
C4912      C4913   1.406       .  A
C4913      C4914   1.391       .  A
C4913     Br4925   1.921       .  S
C4914      H4917   1.084       .  S
C4916      C4918   1.405       .  A
C4916      C4922   1.408       .  A
C4918      C4919   1.396       .  A
C4918      H4923   1.083   1_455  S
C4919      C4920   1.408       .  A
C4919     Br4927   1.911       .  S
C4920      C4921   1.408       .  A
C4921      C4922   1.396       .  A
C4921      H4924   1.085       .  S
C4922     Br4928   1.915       .  S
C4929      C4930   1.412       .  A
C4929      C4934   1.409       .  A
C4930      C4931   1.406       .  A
C4930     Br4946   1.918       .  S
C4931      C4932   1.407       .  A
C4931      H4935   1.083   1_455  S
C4932      C4936   1.491   1_455  S
C4932      C4933   1.408       .  A
C4933      C4934   1.399       .  A
C4933     Br4945   1.920       .  S
C4934      H4937   1.083       .  S
C4936      C4938   1.405       .  A
C4936      C4942   1.410       .  A
C4938      C4939   1.405       .  A
C4938      H4943   1.085       .  S
C4939      C4940   1.411       .  A
C4939     Br4947   1.915       .  S
C4940      C4941   1.402       .  A
C4941      C4942   1.398       .  A
C4941      H4944   1.087       .  S
C4942     Br4948   1.913   1_655  S
C4949      C4950   1.414       .  A
C4949      C4954   1.407       .  A
C4950      C4951   1.402       .  A
C4950     Br4966   1.922       .  S
C4951      C4952   1.403       .  A
C4951      H4955   1.084       .  S
C4952      C4956   1.485       .  S
C4952      C4953   1.408       .  A
C4953      C4954   1.401       .  A
C4953     Br4965   1.919       .  S
C4954      H4957   1.083       .  S
C4956      C4958   1.406       .  A
C4956      C4962   1.409       .  A
C4958      C4959   1.402       .  A
C4958      H4963   1.084       .  S
C4959      C4960   1.408       .  A
C4959     Br4967   1.920       .  S
C4960      C4961   1.402       .  A
C4961      C4962   1.401       .  A
C4961      H4964   1.084       .  S
C4962     Br4968   1.919       .  S
C4969      C4970   1.421       .  A
C4969      C4974   1.410       .  A
C4970      C4971   1.402       .  A
C4970     Br4986   1.923       .  S
C4971      C4972   1.400       .  A
C4971      H4975   1.084       .  S
C4972      C4976   1.486       .  S
C4972      C4973   1.408       .  A
C4973      C4974   1.401       .  A
C4973     Br4985   1.919       .  S
C4974      H4977   1.083       .  S
C4976      C4978   1.399       .  A
C4976      C4982   1.409       .  A
C4978      C4979   1.401       .  A
C4978      H4983   1.084       .  S
C4979      C4980   1.420       .  A
C4979     Br4987   1.922       .  S
C4980      C4981   1.408       .  A
C4981      C4982   1.404       .  A
C4981      H4984   1.083       .  S
C4982     Br4988   1.917       .  S
C4989      C4990   1.423       .  A
C4989      C4994   1.407       .  A
C4990      C4991   1.400       .  A
C4990     Br5006   1.923       .  S
C4991      C4992   1.398       .  A
C4991      H4995   1.084       .  S
C4992      C4996   1.479       .  S
C4992      C4993   1.407       .  A
C4993      C4994   1.399       .  A
C4993     Br5005   1.919       .  S
C4994      H4997   1.083       .  S
C4996      C4998   1.399       .  A
C4996      C5002   1.407       .  A
C4998      C4999   1.400       .  A
C4998      H5003   1.083       .  S
C4999      C5000   1.420       .  A
C4999     Br5007   1.922       .  S
C5000      C5001   1.407       .  A
C5001      C5002   1.397       .  A
C5001      H5004   1.083       .  S
C5002     Br5008   1.917       .  S
C5009      C5010   1.423       .  A
C5009      C5014   1.408       .  A
C5010      C5011   1.398       .  A
C5010     Br5026   1.924       .  S
C5011      C5012   1.399       .  A
C5011      H5015   1.084       .  S
C5012      C5016   1.494   1_655  S
C5012      C5013   1.414       .  A
C5013      C5014   1.407       .  A
C5013     Br5025   1.920   1_655  S
C5014      H5017   1.083       .  S
C5016      C5018   1.407       .  A
C5016      C5022   1.414       .  A
C5018      C5019   1.403       .  A
C5018      H5023   1.083       .  S
C5019      C5020   1.411       .  A
C5019     Br5027   1.920       .  S
C5020      C5021   1.404       .  A
C5021      C5022   1.400       .  A
C5021      H5024   1.083       .  S
C5022     Br5028   1.921   1_455  S
C5029      C5030   1.422       .  A
C5029      C5034   1.406       .  A
C5030      C5031   1.392       .  A
C5030     Br5046   1.923       .  S
C5031      C5032   1.396   1_455  A
C5031      H5035   1.084       .  S
C5032      C5036   1.488       .  S
C5032      C5033   1.416       .  A
C5033      C5034   1.407   1_655  A
C5033     Br5045   1.920       .  S
C5034      H5037   1.083       .  S
C5036      C5038   1.406   1_556  A
C5036      C5042   1.409       .  A
C5038      C5039   1.397       .  A
C5038      H5043   1.084       .  S
C5039      C5040   1.407       .  A
C5039     Br5047   1.916       .  S
C5040      C5041   1.410   1_554  A
C5041      C5042   1.402       .  A
C5041      H5044   1.084       .  S
C5042     Br5048   1.919       .  S
C5049      C5050   1.409       .  A
C5049      C5054   1.403       .  A
C5050      C5051   1.400       .  A
C5050     Br5066   1.917       .  S
C5051      C5052   1.401       .  A
C5051      H5055   1.083       .  S
C5052      C5056   1.477       .  S
C5052      C5053   1.408       .  A
C5053      C5054   1.398       .  A
C5053     Br5065   1.915       .  S
C5054      H5057   1.079       .  S
C5056      C5058   1.407       .  A
C5056      C5062   1.402       .  A
C5058      C5059   1.405       .  A
C5058      H5063   1.082       .  S
C5059      C5060   1.407       .  A
C5059     Br5067   1.915       .  S
C5060      C5061   1.408       .  A
C5061      C5062   1.395       .  A
C5061      H5064   1.083       .  S
C5062     Br5068   1.919       .  S
C5069      C5070   1.404       .  A
C5069      C5074   1.407       .  A
C5070      C5071   1.402       .  A
C5070     Br5086   1.915       .  S
C5071      C5072   1.409       .  A
C5071      H5075   1.084       .  S
C5072      C5076   1.486       .  S
C5072      C5073   1.407       .  A
C5073      C5074   1.400       .  A
C5073     Br5085   1.919       .  S
C5074      H5077   1.084       .  S
C5076      C5078   1.405       .  A
C5076      C5082   1.408       .  A
C5078      C5079   1.403       .  A
C5078      H5083   1.083       .  S
C5079      C5080   1.416       .  A
C5079     Br5087   1.922       .  S
C5080      C5081   1.407       .  A
C5081      C5082   1.395       .  A
C5081      H5084   1.084       .  S
C5082     Br5088   1.917       .  S
C5089      C5090   1.413       .  A
C5089      C5094   1.404       .  A
C5090      C5091   1.406       .  A
C5090     Br5106   1.919       .  S
C5091      C5092   1.407       .  A
C5091      H5095   1.083       .  S
C5092      C5096   1.496       .  S
C5092      C5093   1.412       .  A
C5093      C5094   1.403       .  A
C5093     Br5105   1.918       .  S
C5094      H5097   1.084       .  S
C5096      C5098   1.407       .  A
C5096      C5102   1.410       .  A
C5098      C5099   1.407       .  A
C5098      H5103   1.083       .  S
C5099      C5100   1.415       .  A
C5099     Br5107   1.920       .  S
C5100      C5101   1.408       .  A
C5101      C5102   1.403       .  A
C5101      H5104   1.083       .  S
C5102     Br5108   1.919       .  S
C5109      C5110   1.418       .  A
C5109      C5114   1.410       .  A
C5110      C5111   1.408       .  A
C5110     Br5126   1.921       .  S
C5111      C5112   1.404       .  A
C5111      H5115   1.083       .  S
C5112      C5116   1.494       .  S
C5112      C5113   1.408       .  A
C5113      C5114   1.403       .  A
C5113     Br5125   1.919       .  S
C5114      H5117   1.083       .  S
C5116      C5118   1.405       .  A
C5116      C5122   1.410       .  A
C5118      C5119   1.408       .  A
C5118      H5123   1.083       .  S
C5119      C5120   1.417       .  A
C5119     Br5127   1.921       .  S
C5120      C5121   1.408       .  A
C5121      C5122   1.403       .  A
C5121      H5124   1.083       .  S
C5122     Br5128   1.919       .  S
C5129      C5130   1.414       .  A
C5129      C5134   1.404       .  A
C5130      C5131   1.396       .  A
C5130     Br5146   1.921       .  S
C5131      C5132   1.403       .  A
C5131      H5135   1.083       .  S
C5132      C5136   1.492       .  S
C5132      C5133   1.415       .  A
C5133      C5134   1.402       .  A
C5133     Br5145   1.922       .  S
C5134      H5137   1.084       .  S
C5136      C5138   1.410       .  A
C5136      C5142   1.411       .  A
C5138      C5139   1.406       .  A
C5138      H5143   1.083       .  S
C5139      C5140   1.410       .  A
C5139     Br5147   1.914       .  S
C5140      C5141   1.412       .  A
C5141      C5142   1.392       .  A
C5141      H5144   1.084       .  S
C5142     Br5148   1.925       .  S
C5149      C5150   1.422       .  A
C5149      C5154   1.408       .  A
C5150      C5151   1.398       .  A
C5150     Br5166   1.922       .  S
C5151      C5152   1.397       .  A
C5151      H5155   1.084       .  S
C5152      C5156   1.492       .  S
C5152      C5153   1.413       .  A
C5153      C5154   1.411       .  A
C5153     Br5165   1.917       .  S
C5154      H5157   1.083       .  S
C5156      C5158   1.407       .  A
C5156      C5162   1.410       .  A
C5158      C5159   1.407       .  A
C5158      H5163   1.066       .  S
C5159      C5160   1.412       .  A
C5159     Br5167   1.920       .  S
C5160      C5161   1.407       .  A
C5161      C5162   1.406       .  A
C5161      H5164   1.061       .  S
C5162     Br5168   1.920       .  S
C5169      C5170   1.411       .  A
C5169      C5174   1.406       .  A
C5170      C5171   1.398       .  A
C5170     Br5186   1.920       .  S
C5171      C5172   1.403       .  A
C5171      H5175   1.084       .  S
C5172      C5176   1.473       .  S
C5172      C5173   1.405       .  A
C5173      C5174   1.394       .  A
C5173     Br5185   1.919   1_556  S
C5174      H5177   1.084       .  S
C5176      C5178   1.404       .  A
C5176      C5182   1.404   1_556  A
C5178      C5179   1.400       .  A
C5178      H5183   1.083       .  S
C5179      C5180   1.409   1_556  A
C5179     Br5187   1.919       .  S
C5180      C5181   1.405       .  A
C5181      C5182   1.393       .  A
C5181      H5184   1.084       .  S
C5182     Br5188   1.919       .  S
C5189      C5190   1.413       .  A
C5189      C5194   1.402       .  A
C5190      C5191   1.401       .  A
C5190     Br5206   1.920       .  S
C5191      C5192   1.403       .  A
C5191      H5195   1.083       .  S
C5192      C5196   1.480       .  S
C5192      C5193   1.409       .  A
C5193      C5194   1.396       .  A
C5193     Br5205   1.915       .  S
C5194      H5197   1.084       .  S
C5196      C5198   1.399       .  A
C5196      C5202   1.407       .  A
C5198      C5199   1.400       .  A
C5198      H5203   1.084       .  S
C5199      C5200   1.419       .  A
C5199     Br5207   1.922       .  S
C5200      C5201   1.409       .  A
C5201      C5202   1.400       .  A
C5201      H5204   1.083       .  S
C5202     Br5208   1.919       .  S
C5209      C5210   1.422       .  A
C5209      C5214   1.410       .  A
C5210      C5211   1.401       .  A
C5210     Br5226   1.923       .  S
C5211      C5212   1.398       .  A
C5211      H5215   1.084       .  S
C5212      C5216   1.476       .  S
C5212      C5213   1.404       .  A
C5213      C5214   1.398       .  A
C5213     Br5225   1.919       .  S
C5214      H5217   1.083       .  S
C5216      C5218   1.399       .  A
C5216      C5222   1.406       .  A
C5218      C5219   1.401       .  A
C5218      H5223   1.083       .  S
C5219      C5220   1.419       .  A
C5219     Br5227   1.922       .  S
C5220      C5221   1.407       .  A
C5221      C5222   1.398       .  A
C5221      H5224   1.083       .  S
C5222     Br5228   1.920       .  S
C5229      C5230   1.414       .  A
C5229      C5234   1.405       .  A
C5230      C5231   1.398       .  A
C5230     Br5246   1.920   1_554  S
C5231      C5232   1.400       .  A
C5231      H5235   1.084       .  S
C5232      C5236   1.485       .  S
C5232      C5233   1.410       .  A
C5233      C5234   1.405       .  A
C5233     Br5245   1.917       .  S
C5234      H5237   1.083       .  S
C5236      C5238   1.402       .  A
C5236      C5242   1.410       .  A
C5238      C5239   1.401       .  A
C5238      H5243   1.084       .  S
C5239      C5240   1.414       .  A
C5239     Br5247   1.921       .  S
C5240      C5241   1.404       .  A
C5241      C5242   1.402       .  A
C5241      H5244   1.084       .  S
C5242     Br5248   1.918   1_554  S
