geometry optimzed in LAMMPS
_audit_creation_date              2020-12-01 
_audit_creation_method            'lammps2cif' 
_symmetry_space_group_name_H-M    'P1' 
_symmetry_Int_Tables_number       1 
_symmetry_cell_setting            triclinic 
loop_ 
_symmetry_equiv_pos_as_xyz 
  x,y,z 
_cell_length_a                    60.09064297 
_cell_length_b                    60.06828302103486 
_cell_length_c                    43.44061348506634 
_cell_angle_alpha                 89.79864626261455 
_cell_angle_beta                  89.97449513782614 
_cell_angle_gamma                 120.02544226543188 
loop_ 
_atom_site_label 
_atom_site_type_symbol 
_atom_site_fract_x 
_atom_site_fract_y 
_atom_site_fract_z 
_atom_site_charge 
O1          O  0.11412193  0.20232745  0.34130238    -0.82500
C2          C  0.14391592  0.24095797  0.22313286     0.96800
O3          O  0.13407409  0.24976434  0.24186375    -0.71600
O4          O  0.09077175  0.21350364  0.26577013    -0.75200
Al5        Al  0.12196642  0.23936048  0.28341804     1.49000
C6          C  0.07662469  0.19047205  0.27398231     0.92100
O7          O  0.12237834  0.17037408  0.27144099    -0.81500
O8          O  0.18084987  0.23056156  0.31220498    -0.75000
Al9        Al  0.11909853  0.18861217  0.30540589     1.90100
O10         O  0.16328000  0.19716647  0.26410490    -0.74100
O11         O  0.18060828  0.26639499  0.27576941    -0.73900
O12         O  0.15630532  0.23027374  0.23216359    -0.79600
O13         O  0.15053653  0.26850218  0.30115790    -0.77800
O14         O  0.13593497  0.21929478  0.28699694    -1.13900
O15         O  0.10751979  0.23265762  0.32378746    -0.73100
C16         C  0.10798504  0.21920441  0.34581576     0.97600
C17         C  0.14393343  0.17508632  0.26119733     0.94000
Al18       Al  0.16757166  0.23023114  0.27228128     1.55600
O19         O  0.08540063  0.17929731  0.29044464    -0.77800
C20         C  0.17309829  0.27915960  0.29096268     0.98200
C21         C  0.17138967  0.21114439  0.32988533     0.93000
O22         O  0.14913259  0.19205510  0.32538192    -0.83100
O23         O  0.24718016  0.46358830  0.24394584    -0.82500
C24         C  0.23975650  0.43010247  0.36458640     0.96800
O25         O  0.22114138  0.41987510  0.34582933    -0.71600
O26         O  0.21320520  0.45453174  0.31947705    -0.75200
Al27       Al  0.21900544  0.42865312  0.30361027     1.49000
C28         C  0.22151304  0.47708342  0.30977309     0.92100
O29         O  0.28783783  0.49890471  0.31232840    -0.81500
O30         O  0.28686105  0.43733502  0.27720371    -0.75000
Al31       Al  0.26613843  0.47884067  0.27940452     1.90100
O32         O  0.30285573  0.47330696  0.32277595    -0.74100
O33         O  0.25098189  0.40265929  0.31499798    -0.73900
O34         O  0.26283928  0.44111348  0.35564353    -0.79600
O35         O  0.21930306  0.39963313  0.28755313    -0.77800
O36         O  0.25291092  0.44910215  0.29973705    -1.13900
O37         O  0.21052723  0.43371164  0.26272596    -0.73100
C38         C  0.22398545  0.44684558  0.24022635     0.97600
C39         C  0.30525489  0.49540936  0.32328888     0.94000
Al40       Al  0.27402889  0.43936385  0.31626196     1.55600
O41         O  0.24143796  0.48811536  0.29319795    -0.77800
C42         C  0.23090838  0.38934759  0.29954451     0.98200
C43         C  0.29678248  0.45611095  0.25865898     0.93000
O44         O  0.29276603  0.47485735  0.26075194    -0.83100
O45         O  0.54673255  0.41947491  0.08016371    -0.82500
C46         C  0.51710762  0.42811975  0.19893997     0.96800
O47         O  0.53016520  0.44730734  0.18137871    -0.71600
O48         O  0.57144238  0.45116668  0.15648493    -0.75200
Al49       Al  0.54178650  0.44944286  0.13928233     1.49000
C50         C  0.58422811  0.44119023  0.14727942     0.92100
O51         O  0.53410422  0.37671967  0.14921168    -0.81500
O52         O  0.47962494  0.38490581  0.10654764    -0.75000
Al53       Al  0.53981039  0.39963240  0.11546686     1.90100
O54         O  0.49394378  0.36625686  0.15545904    -0.74100
O55         O  0.48208176  0.42194599  0.14290281    -0.73900
O56         O  0.50223973  0.40610039  0.18810153    -0.79600
O57         O  0.51554096  0.45428649  0.12264995    -0.77800
O58         O  0.52487578  0.41539667  0.13405602    -1.13900
O59         O  0.55623027  0.45719469  0.09829851    -0.73100
C60         C  0.55502144  0.44301072  0.07609312     0.97600
C61         C  0.51160370  0.36078367  0.15801471     0.94000
Al62       Al  0.49235049  0.39655038  0.14717948     1.55600
O63         O  0.57410738  0.42161378  0.13034302    -0.77800
C64         C  0.49236057  0.44371397  0.13022713     0.98200
C65         C  0.48765356  0.37316661  0.08982079     0.93000
O66         O  0.50915740  0.37476327  0.09483788    -0.83100
O67         O  0.41358719  0.55272422  0.17469714    -0.82500
C68         C  0.42246365  0.52679121  0.05509777     0.96800
O69         O  0.44141084  0.53702545  0.07335981    -0.71600
O70         O  0.44652669  0.57855760  0.09864862    -0.75200
Al71       Al  0.44327664  0.54800140  0.11532522     1.49000
C72         C  0.43700219  0.59177368  0.10786964     0.92100
O73         O  0.37230278  0.54419942  0.10604048    -0.81500
O74         O  0.37768997  0.48654544  0.14410561    -0.75000
Al75       Al  0.39437494  0.54763510  0.13941996     1.90100
O76         O  0.35949936  0.50374695  0.09752435    -0.74100
O77         O  0.41400299  0.48921289  0.10681927    -0.73900
O78         O  0.39967018  0.51305081  0.06447566    -0.79600
O79         O  0.44593708  0.52020947  0.13141167    -0.77800
O80         O  0.40921565  0.53238980  0.11978756    -1.13900
O81         O  0.45111828  0.56178476  0.15632766    -0.73100
C82         C  0.43699395  0.56053331  0.17861513     0.97600
C83         C  0.35586129  0.52266499  0.09546971     0.94000
Al84       Al  0.38945446  0.50080457  0.10453483     1.55600
O85         O  0.41752779  0.58211149  0.12522323    -0.77800
C86         C  0.43502796  0.49782413  0.12081023     0.98200
C87         C  0.36678673  0.49452796  0.16219501     0.93000
O88         O  0.36880991  0.51645831  0.15887602    -0.83100
O89         O  0.19992906  0.12008187  0.41644331    -0.82500
C90         C  0.23547133  0.14969227  0.03881399     0.96800
O91         O  0.24352374  0.13834938  0.02146018    -0.71600
O92         O  0.20161379  0.09310336  0.49684152    -0.75200
Al93       Al  0.22972399  0.12268564  0.47991605     1.49000
C94         C  0.18007489  0.07912332  0.48475340     0.92100
O95         O  0.16213609  0.12494122  0.48394376    -0.81500
O96         O  0.22468058  0.18438231  0.44726630    -0.75000
Al97       Al  0.18263953  0.12286940  0.45121543     1.90100
O98         O  0.18953784  0.16531183  0.49463234    -0.74100
O99         O  0.25944086  0.18238495  0.48409582    -0.73900
O100        O  0.22716212  0.16358398  0.02764062    -0.79600
O101        O  0.26049272  0.14983394  0.46407797    -0.77800
O102        O  0.21179292  0.13850439  0.47290935    -1.13900
O103        O  0.22477709  0.10796652  0.43945612    -0.73100
C104        C  0.21547525  0.11179868  0.41526785     0.97600
C105        C  0.16699039  0.14614932  0.49579785     0.94000
Al106      Al  0.22299976  0.17013046  0.48740739     1.55600
O107        O  0.17189852  0.08808531  0.46416343    -0.77800
C108        C  0.27198532  0.17309224  0.47172821     0.98200
C109        C  0.20515386  0.17621188  0.43011996     0.93000
O110        O  0.18661113  0.15349990  0.43276591    -0.83100
O111        O  0.46094583  0.25059345  0.00987733    -0.82500
C112        C  0.42402744  0.24079713  0.38876721     0.96800
O113        O  0.41709948  0.22219577  0.40722607    -0.71600
O114        O  0.45401658  0.21807478  0.43204366    -0.75200
Al115      Al  0.42594774  0.21976558  0.44882607     1.49000
C116        C  0.47600584  0.22640078  0.44326162     0.92100
O117        O  0.49316245  0.29056040  0.44402395    -0.81500
O118        O  0.43058518  0.28659712  0.47973200    -0.75000
Al119      Al  0.47318884  0.26761625  0.47643852     1.90100
O120        O  0.46538268  0.30283810  0.43220198    -0.74100
O121        O  0.39568940  0.24920843  0.44380419    -0.73900
O122        O  0.43299003  0.26341905  0.39878595    -0.79600
O123        O  0.39518456  0.21599137  0.46464334    -0.77800
O124        O  0.44378572  0.25365488  0.45501758    -1.13900
O125        O  0.43097974  0.21049321  0.48924105    -0.73100
C126        C  0.44542639  0.22682933  0.01217642     0.97600
C127        C  0.48811387  0.30680087  0.43224210     0.94000
Al128      Al  0.43211779  0.27370821  0.43993143     1.55600
O129        O  0.48454675  0.24417723  0.46297010    -0.77800
C130        C  0.38344379  0.22726731  0.45621233     0.98200
C131        C  0.44977409  0.29762267  0.49743451     0.93000
O132        O  0.46842369  0.29360862  0.49521149    -0.83100
O133        O  0.51146590  0.13278874  0.33510249    -0.82500
C134        C  0.52481497  0.10030427  0.44976762     0.96800
O135        O  0.50300066  0.09606731  0.44056291    -0.71600
O136        O  0.50349054  0.13767085  0.42056312    -0.75200
Al137      Al  0.49330730  0.10511849  0.40215267     1.49000
C138        C  0.51489565  0.15961913  0.40820673     0.92100
O139        O  0.57091181  0.15879270  0.38543858    -0.81500
O140        O  0.53737987  0.08971455  0.34552761    -0.75000
Al141      Al  0.53966547  0.14388391  0.36148858     1.90100
O142        O  0.57333928  0.12378891  0.38521458    -0.74100
O143        O  0.50902978  0.06396304  0.39349980    -0.73900
O144        O  0.54182218  0.10218270  0.43116641    -0.79600
O145        O  0.47702579  0.07042983  0.38643982    -0.77800
O146        O  0.52377858  0.11523137  0.38415674    -1.13900
O147        O  0.47899303  0.11316441  0.36744190    -0.73100
C148        C  0.48790251  0.12275050  0.34126940     0.97600
C149        C  0.58417975  0.14784156  0.38740850     0.94000
Al150      Al  0.53893188  0.09642423  0.38859837     1.55600
O151        O  0.52873194  0.16359587  0.38474849    -0.77800
C152        C  0.48552574  0.05513102  0.38883715     0.98200
C153        C  0.54773555  0.10746541  0.32561384     0.93000
O154        O  0.55316261  0.13017641  0.33201837    -0.83100
O155        O  0.37942115  0.86867103  0.41632886    -0.82500
C156        C  0.42641766  0.90318056  0.30188742     0.96800
O157        O  0.40691874  0.90447522  0.31031422    -0.71600
O158        O  0.36591310  0.86239980  0.32989421    -0.75200
Al159      Al  0.38795845  0.89526754  0.34832977     1.49000
C160        C  0.35494713  0.84093972  0.34350154     0.92100
O161        O  0.41108190  0.84227376  0.36350768    -0.81500
O162        O  0.44708341  0.90969980  0.40687541    -0.75000
Al163      Al  0.39569458  0.85693763  0.38917613     1.90100
O164        O  0.44926950  0.87684340  0.36433388    -0.74100
O165        O  0.44493198  0.93738119  0.36233293    -0.73900
O166        O  0.44147696  0.90213180  0.32124252    -0.79600
O167        O  0.40559421  0.92990343  0.36369021    -0.77800
O168        O  0.40860694  0.88577904  0.36690364    -1.13900
O169        O  0.36558250  0.88699517  0.38314706    -0.73100
C170        C  0.36547142  0.87823094  0.40974167     0.97600
C171        C  0.43515837  0.85296778  0.35995083     0.94000
Al172      Al  0.44271287  0.90496628  0.36378838     1.55600
O173        O  0.36489107  0.83774345  0.36717087    -0.77800
C174        C  0.42935870  0.94529938  0.36590484     0.98200
C175        C  0.43990438  0.89136975  0.42570247     0.93000
O176        O  0.42294441  0.86900458  0.41816894    -0.83100
O177        O  0.19870387  0.05530640  0.17024981    -0.82500
C178        C  0.23069720  0.09519615  0.28899855     0.96800
O179        O  0.23264136  0.07674004  0.27782474    -0.71600
O180        O  0.19047332  0.03759618  0.25575080    -0.75200
Al181      Al  0.22345641  0.05982991  0.23828879     1.49000
C182        C  0.16906822  0.02727733  0.24222067     0.92100
O183        O  0.17160652  0.08481240  0.22481310    -0.81500
O184        O  0.24113222  0.12260960  0.18569570    -0.75000
Al185      Al  0.18673730  0.07043057  0.19861989     1.90100
O186        O  0.20646912  0.12269723  0.22709089    -0.74100
O187        O  0.26630323  0.11690021  0.23206746    -0.73900
O188        O  0.22872423  0.11108843  0.27167676    -0.79600
O189        O  0.25798200  0.07790084  0.22283640    -0.77800
O190        O  0.21469182  0.08168768  0.22205272    -1.13900
O191        O  0.21527846  0.03905158  0.20223708    -0.73100
C192        C  0.20724752  0.04037586  0.17576481     0.97600
C193        C  0.18234803  0.10875919  0.22913435     0.94000
Al194      Al  0.23403667  0.11541281  0.22866129     1.55600
O195        O  0.16620484  0.03813715  0.21898551    -0.77800
C196        C  0.27395124  0.10142603  0.22588489     0.98200
C197        C  0.22382597  0.11649924  0.16561025     0.93000
O198        O  0.20084120  0.09960696  0.17157374    -0.83100
O199        O  0.46060605  0.18569338  0.25422362    -0.82500
C200        C  0.42544352  0.19313408  0.13845591     0.96800
O201        O  0.42359903  0.17239754  0.14831670    -0.71600
O202        O  0.46639694  0.17606918  0.16865590    -0.75200
Al203      Al  0.43355421  0.16457475  0.18721291     1.49000
C204        C  0.48801973  0.18791495  0.18146780     0.92100
O205        O  0.48355466  0.24268973  0.19911047    -0.81500
O206        O  0.41560709  0.20783816  0.24279300    -0.75000
Al207      Al  0.47059095  0.21286848  0.22588553     1.90100
O208        O  0.44743478  0.24315385  0.20026760    -0.74100
O209        O  0.38951182  0.17700332  0.19735668    -0.73900
O210        O  0.42560167  0.20963533  0.15648801    -0.79600
O211        O  0.39913258  0.14682232  0.20305672    -0.77800
O212        O  0.44180295  0.19494238  0.20408108    -1.13900
O213        O  0.44270296  0.15235127  0.22296694    -0.73100
C214        C  0.45155237  0.16203349  0.24907505     0.97600
C215        C  0.47110499  0.25431455  0.19443553     0.94000
Al216      Al  0.42120206  0.20809032  0.19948297     1.55600
O217        O  0.49125088  0.20204498  0.20429538    -0.77800
C218        C  0.38278756  0.15402882  0.20291148     0.98200
C219        C  0.43376063  0.22043634  0.26146435     0.93000
O220        O  0.45665498  0.22713864  0.25426702    -0.83100
O221        O  0.14645156  0.94868538  0.09169064    -0.82500
C222        C  0.13347933  0.90504285  0.47419807     0.96800
O223        O  0.15478247  0.92255417  0.48478337    -0.71600
O224        O  0.15225594  0.96262644  0.50495061    -0.75200
Al225      Al  0.16461111  0.94201265  0.02348340     1.49000
C226        C  0.14418542  0.97569850  0.01932538     0.92100
O227        O  0.08761782  0.91945194  0.03978140    -0.81500
O228        O  0.11943564  0.88059085  0.07591605    -0.75000
Al229      Al  0.11844069  0.93362732  0.06444378     1.90100
O230        O  0.08374435  0.88134469  0.03752037    -0.74100
O231        O  0.14796156  0.88497368  0.02802794    -0.73900
O232        O  0.11540025  0.88999465  0.49180156    -0.79600
O233        O  0.17985665  0.92273482  0.03935796    -0.77800
O234        O  0.13386122  0.92138881  0.04041881    -1.13900
O235        O  0.17847494  0.96380042  0.05857610    -0.73100
C236        C  0.16979566  0.96337991  0.08518820     0.97600
C237        C  0.07371151  0.89543836  0.03617074     0.94000
Al238      Al  0.11816858  0.88772651  0.03375171     1.55600
O239        O  0.13075525  0.96564005  0.04312391    -0.77800
C240        C  0.17124026  0.89909070  0.03490056     0.98200
C241        C  0.10945562  0.88733127  0.09678579     0.93000
O242        O  0.10376257  0.90470530  0.09203301    -0.83100
O243        O  0.27519876  0.81517488  0.99708513    -0.82500
C244        C  0.23291251  0.80695166  0.11434880     0.96800
O245        O  0.25131709  0.82752176  0.10330103    -0.71600
O246        O  0.29227074  0.82748672  0.08195236    -0.75200
Al247      Al  0.26831267  0.83580488  0.06395878     1.49000
C248        C  0.30299886  0.81635691  0.06953040     0.92100
O249        O  0.24678965  0.75925819  0.05363944    -0.81500
O250        O  0.20709927  0.78724296  0.01158542    -0.75000
Al251      Al  0.26038510  0.78828155  0.02632398     1.90100
O252        O  0.20807530  0.75423714  0.05536070    -0.74100
O253        O  0.21021597  0.81821380  0.05550557    -0.73900
O254        O  0.21730095  0.78888528  0.09736068    -0.79600
O255        O  0.24869184  0.85060536  0.04833893    -0.77800
O256        O  0.24767789  0.80443131  0.04844858    -1.13900
O257        O  0.28895688  0.84877490  0.02761554    -0.73100
C258        C  0.28887077  0.83901498  0.00182204     0.97600
C259        C  0.22307135  0.74547838  0.05927028     0.94000
Al260      Al  0.21367784  0.78859899  0.05447951     1.55600
O261        O  0.29229694  0.80157664  0.04722484    -0.77800
C262        C  0.22475605  0.84150872  0.04915851     0.98200
C263        C  0.21635584  0.77764353  0.49322654     0.93000
O264        O  0.23407729  0.77300181  0.49972519    -0.83100
O265        O  0.20740612  0.75060055  0.24116073    -0.82500
C266        C  0.18643642  0.75760068  0.36588720     0.96800
O267        O  0.19660337  0.77609864  0.34697295    -0.71600
O268        O  0.23693698  0.78017148  0.31989044    -0.75200
Al269      Al  0.20675995  0.77835138  0.30471891     1.49000
C270        C  0.25041363  0.77241203  0.30680563     0.92100
O271        O  0.20420876  0.70816773  0.30732493    -0.81500
O272        O  0.14381614  0.71185671  0.27722994    -0.75000
Al273      Al  0.20535034  0.73077066  0.27560849     1.90100
O274        O  0.16449970  0.69514259  0.32171447    -0.74100
O275        O  0.14799028  0.74895311  0.31477650    -0.73900
O276        O  0.17334176  0.73475218  0.35634822    -0.79600
O277        O  0.17895471  0.78134115  0.29025345    -0.77800
O278        O  0.19081721  0.74452774  0.29886731    -1.13900
O279        O  0.22013782  0.78768690  0.26371819    -0.73100
C280        C  0.21597394  0.77439648  0.23974957     0.97600
C281        C  0.18344660  0.69153478  0.31976880     0.94000
Al282      Al  0.16001904  0.72439129  0.31610204     1.55600
O283        O  0.24065292  0.75466563  0.28704659    -0.77800
C284        C  0.15672315  0.77045058  0.30141198     0.98200
C285        C  0.15127442  0.70141156  0.25772526     0.93000
O286        O  0.17375935  0.70472015  0.25845799    -0.83100
O287        O  0.09108433  0.89473646  0.33650651    -0.82500
C288        C  0.09226525  0.85818799  0.22318173     0.96800
O289        O  0.10738582  0.87703799  0.23968614    -0.71600
O290        O  0.11670935  0.91200464  0.28185321    -0.75200
Al291      Al  0.11073366  0.87772933  0.28280395     1.49000
C292        C  0.10245200  0.92152670  0.27771118     0.92100
O293        O  0.03233113  0.86517051  0.28521729    -0.81500
O294        O  0.03551754  0.81735442  0.30970476    -0.75000
Al295      Al  0.06335716  0.87838826  0.30808406     1.90100
O296        O  0.03268021  0.83709829  0.25415395    -0.74100
O297        O  0.07643445  0.81608384  0.29119526    -0.73900
O298        O  0.07422949  0.83758473  0.23473526    -0.79600
O299        O  0.11439987  0.84838507  0.28204546    -0.77800
O300        O  0.07662024  0.86180093  0.28803750    -1.13900
O301        O  0.11655183  0.87940350  0.32616821    -0.73100
C302        C  0.10833755  0.88978216  0.34481312     0.97600
C303        C  0.02201168  0.84918947  0.26387769     0.94000
Al304      Al  0.05662218  0.82990128  0.27368463     1.55600
O305        O  0.07837543  0.90763474  0.28061571    -0.77800
C306        C  0.10028405  0.82517936  0.28912127     0.98200
C307        C  0.03454410  0.82776614  0.33450651     0.93000
O308        O  0.04704566  0.85186321  0.33775914    -0.83100
O309        O  0.85959740  0.45097046  0.07972590    -0.82500
C310        C  0.90014701  0.48357223  0.19676282     0.96800
O311        O  0.90694703  0.47123012  0.17918488    -0.71600
O312        O  0.86898951  0.42931654  0.15685362    -0.75200
Al313      Al  0.89633732  0.45855562  0.13803783     1.49000
C314        C  0.84571937  0.41641755  0.14962563     0.92100
O315        O  0.83133842  0.46724478  0.14873005    -0.81500
O316        O  0.89355827  0.51982734  0.10365095    -0.75000
Al317      Al  0.84775136  0.45975150  0.11515213     1.90100
O318        O  0.86142529  0.50730168  0.15280188    -0.74100
O319        O  0.92860031  0.51802237  0.14039046    -0.73900
O320        O  0.89250117  0.49822056  0.18615118    -0.79600
O321        O  0.92682988  0.48444919  0.11979455    -0.77800
O322        O  0.87889127  0.47516690  0.13262644    -1.13900
O323        O  0.88897121  0.44318640  0.09808422    -0.73100
C324        C  0.87585789  0.44385898  0.07579551     0.97600
C325        C  0.83855828  0.48994010  0.15751381     0.94000
Al326      Al  0.89286900  0.50794450  0.14469658     1.55600
O327        O  0.83563083  0.42603577  0.13265292    -0.77800
C328        C  0.93974000  0.50748691  0.12765027     0.98200
C329        C  0.87377466  0.51114295  0.08675559     0.93000
O330        O  0.85376940  0.48981892  0.09264717    -0.83100
O331        O  0.12067530  0.58145614  0.17569641    -0.82500
C332        C  0.09519675  0.57822871  0.05096632     0.96800
O333        O  0.08557587  0.55891617  0.06873724    -0.71600
O334        O  0.12192669  0.55435464  0.09529338    -0.75200
Al335      Al  0.09334702  0.55556830  0.11090666     1.49000
C336        C  0.14294097  0.56170094  0.10878644     0.92100
O337        O  0.16125517  0.62532744  0.11091656    -0.81500
O338        O  0.09722098  0.62191052  0.14113812    -0.75000
Al339      Al  0.13919479  0.60217896  0.14197468     1.90100
O340        O  0.13509547  0.63910467  0.09692273    -0.74100
O341        O  0.06446721  0.58551195  0.10253947    -0.73900
O342        O  0.10480086  0.60071066  0.06143230    -0.79600
O343        O  0.06246963  0.55229900  0.12563596    -0.77800
O344        O  0.11126920  0.58923644  0.11824996    -1.13900
O345        O  0.09728827  0.54497156  0.15142986    -0.73100
C346        C  0.10596224  0.55749570  0.17603458     0.97600
C347        C  0.15746580  0.64215967  0.09842886     0.94000
Al348      Al  0.10115041  0.61001302  0.10183802     1.55600
O349        O  0.15034537  0.57841234  0.12975132    -0.77800
C350        C  0.05138540  0.56385217  0.11551718     0.98200
C351        C  0.11514993  0.63201069  0.16066755     0.93000
O352        O  0.13395543  0.62813347  0.15989739    -0.83100
O353        O  0.78294277  0.54044367  0.00563379    -0.82500
C354        C  0.80522806  0.57318429  0.38510681     0.96800
O355        O  0.79408700  0.58045605  0.40409357    -0.71600
O356        O  0.75202385  0.54266076  0.42760882    -0.75200
Al357      Al  0.78202835  0.56944835  0.44580502     1.49000
C358        C  0.73804321  0.52037013  0.43813372     0.92100
O359        O  0.78408990  0.50190335  0.43459978    -0.81500
O360        O  0.84276989  0.56290065  0.47418864    -0.75000
Al361      Al  0.78166550  0.52033582  0.46895445     1.90100
O362        O  0.82470054  0.52936174  0.42542053    -0.74100
O363        O  0.84100614  0.59850581  0.43941868    -0.73900
O364        O  0.81793494  0.56302290  0.39451673    -0.79600
O365        O  0.80962510  0.59919075  0.46370846    -0.77800
O366        O  0.79735736  0.55070198  0.44968259    -1.13900
O367        O  0.76700809  0.56183549  0.48653812    -0.73100
C368        C  0.77392693  0.55502512  0.00994253     0.97600
C369        C  0.80552538  0.50689846  0.42346774     0.94000
Al370      Al  0.82892120  0.56249019  0.43464446     1.55600
O371        O  0.74715226  0.51045197  0.45620227    -0.77800
C372        C  0.83250534  0.61054077  0.45448307     0.98200
C373        C  0.83473274  0.54304110  0.49079367     0.93000
O374        O  0.81248407  0.52381773  0.48706209    -0.83100
O375        O  0.91115595  0.79513689  0.41394491    -0.82500
C376        C  0.90164424  0.76717839  0.03502247     0.96800
O377        O  0.88337626  0.75929444  0.01587673    -0.71600
O378        O  0.87968193  0.79001394  0.49274186    -0.75200
Al379      Al  0.88189323  0.76240890  0.47546530     1.49000
C380        C  0.88845075  0.81231944  0.48207959     0.92100
O381        O  0.95221635  0.82963627  0.48379905    -0.81500
O382        O  0.94846446  0.76724627  0.44579991    -0.75000
Al383      Al  0.93039780  0.81051715  0.44981276     1.90100
O384        O  0.96501084  0.80198691  0.49281163    -0.74100
O385        O  0.91110468  0.73283861  0.48299411    -0.73900
O386        O  0.92452465  0.77562893  0.02630993    -0.79600
O387        O  0.87889009  0.73198968  0.45879932    -0.77800
O388        O  0.91586553  0.78064803  0.47016484    -1.13900
O389        O  0.87360747  0.76870541  0.43488417    -0.73100
C390        C  0.88739200  0.77970783  0.41156704     0.97600
C391        C  0.96820353  0.82427498  0.49570610     0.94000
Al392      Al  0.93568678  0.76905847  0.48559904     1.55600
O393        O  0.90663881  0.82128698  0.46282903    -0.77800
C394        C  0.89017404  0.72062224  0.46869982     0.98200
C395        C  0.96004008  0.78690031  0.42861468     0.93000
O396        O  0.95681423  0.80602959  0.43167048    -0.83100
O397        O  0.84326493  0.81093851  0.18150923    -0.82500
C398        C  0.85161739  0.76633529  0.28613502     0.96800
O399        O  0.83925110  0.77732431  0.27773659    -0.71600
O400        O  0.83096547  0.80963169  0.24403969    -0.75200
Al401      Al  0.82554714  0.77583007  0.23817252     1.49000
C402        C  0.85038052  0.83174642  0.24368181     0.92100
O403        O  0.90694785  0.82346298  0.21610623    -0.81500
O404        O  0.87867395  0.76610410  0.18171807    -0.75000
Al405      Al  0.87349782  0.81479745  0.20107250     1.90100
O406        O  0.90109523  0.78751038  0.23648467    -0.74100
O407        O  0.83725366  0.73432146  0.20930588    -0.73900
O408        O  0.85924616  0.75598328  0.26647466    -0.79600
O409        O  0.81010544  0.73887872  0.23747392    -0.77800
O410        O  0.85602693  0.78466608  0.22078096    -1.13900
O411        O  0.81052594  0.77438024  0.19908483    -0.73100
C412        C  0.82015685  0.79271613  0.17971501     0.97600
C413        C  0.91562329  0.81074587  0.22956203     0.94000
Al414      Al  0.86792228  0.76284719  0.22341234     1.55600
O415        O  0.87151805  0.83497368  0.23393931    -0.77800
C416        C  0.81537449  0.72497275  0.22104350     0.98200
C417        C  0.88116720  0.78139221  0.16037607     0.93000
O418        O  0.87824779  0.80036057  0.16518779    -0.83100
O419        O  0.71354141  0.54156680  0.25387074    -0.82500
C420        C  0.75557658  0.57313214  0.13600289     0.96800
O421        O  0.73693750  0.57553564  0.14560572    -0.71600
O422        O  0.69865450  0.53184268  0.16726668    -0.75200
Al423      Al  0.71878223  0.56532300  0.18476730     1.49000
C424        C  0.68895579  0.51075084  0.18174543     0.92100
O425        O  0.74763144  0.51662951  0.20196117    -0.81500
O426        O  0.78121657  0.58692649  0.23928484    -0.75000
Al427      Al  0.73097050  0.53074027  0.22676737     1.90100
O428        O  0.78418124  0.55278655  0.19972593    -0.74100
O429        O  0.77460605  0.61009274  0.19162985    -0.73900
O430        O  0.77139537  0.57246039  0.15450888    -0.79600
O431        O  0.73488357  0.59984833  0.20039577    -0.77800
O432        O  0.74133384  0.55824890  0.20265394    -1.13900
O433        O  0.69639403  0.55572561  0.21975295    -0.73100
C434        C  0.69728299  0.54815248  0.24668401     0.97600
C435        C  0.77167174  0.52857768  0.19741652     0.94000
Al436      Al  0.77493717  0.57890003  0.19667367     1.55600
O437        O  0.69976897  0.50892733  0.20562770    -0.77800
C438        C  0.75828801  0.61658921  0.19800640     0.98200
C439        C  0.77585472  0.56981449  0.25948044     0.93000
O440        O  0.75943573  0.54655252  0.25433446    -0.83100
O441        O  0.60450297  0.48161881  0.33155560    -0.82500
C442        C  0.56484655  0.47186007  0.44969306     0.96800
O443        O  0.58121120  0.49343388  0.43835558    -0.71600
O444        O  0.62175398  0.49287377  0.41631895    -0.75200
Al445      Al  0.59805661  0.50167336  0.39874538     1.49000
C446        C  0.63222519  0.48171952  0.40330017     0.92100
O447        O  0.57546149  0.42451198  0.38659722    -0.81500
O448        O  0.53622555  0.45511615  0.34790180    -0.75000
Al449      Al  0.58940602  0.45437407  0.36016955     1.90100
O450        O  0.53709709  0.42002173  0.38803767    -0.74100
O451        O  0.54077989  0.48430857  0.39562729    -0.73900
O452        O  0.54948023  0.45332384  0.43292828    -0.79600
O453        O  0.57816673  0.51622316  0.38334369    -0.77800
O454        O  0.57736160  0.47043421  0.38320705    -1.13900
O455        O  0.61863515  0.51489774  0.36239858    -0.73100
C456        C  0.61834987  0.50537829  0.33637955     0.97600
C457        C  0.55155658  0.41056309  0.39089734     0.94000
Al458      Al  0.54372602  0.45462679  0.39058966     1.55600
O459        O  0.62131144  0.46694434  0.38097365    -0.77800
C460        C  0.55461851  0.50753421  0.38848116     0.98200
C461        C  0.54333422  0.44507213  0.32736724     0.93000
O462        O  0.56040318  0.43913358  0.33306919    -0.83100
O463        O  0.47964983  0.61962024  0.41911341    -0.82500
C464        C  0.46832645  0.57426512  0.30479059     0.96800
O465        O  0.48995305  0.59146701  0.31477122    -0.71600
O466        O  0.48960450  0.63305788  0.33289661    -0.75200
Al467      Al  0.49871763  0.61025923  0.35269743     1.49000
C468        C  0.47870110  0.64417508  0.34492365     0.92100
O469        O  0.42181670  0.58868392  0.36516645    -0.81500
O470        O  0.45246000  0.55149464  0.40895079    -0.75000
Al471      Al  0.45202611  0.60375527  0.39110290     1.90100
O472        O  0.41741075  0.55028785  0.36722396    -0.74100
O473        O  0.48114187  0.55292742  0.36216010    -0.73900
O474        O  0.45019983  0.55958916  0.32263170    -0.79600
O475        O  0.51348614  0.59125848  0.37014547    -0.77800
O476        O  0.46769281  0.59041538  0.36956851    -1.13900
O477        O  0.51246043  0.63240040  0.38738271    -0.73100
C478        C  0.50342897  0.63267689  0.41355230     0.97600
C479        C  0.40784604  0.56451438  0.36291769     0.94000
Al480      Al  0.45174393  0.55641315  0.36543517     1.55600
O481        O  0.46476237  0.63474681  0.36835827    -0.77800
C482        C  0.50430128  0.56732721  0.36902310     0.98200
C483        C  0.44274055  0.56001378  0.42823932     0.93000
O484        O  0.43650457  0.57623634  0.41981096    -0.83100
O485        O  0.52694607  0.71026726  0.50673673    -0.82500
C486        C  0.56649550  0.76248087  0.11249680     0.96800
O487        O  0.55840505  0.73986767  0.10306307    -0.71600
O488        O  0.52763313  0.69974764  0.06978900    -0.75200
Al489      Al  0.56090873  0.72930933  0.06320411     1.49000
C490        C  0.50504959  0.69597356  0.06970268     0.92100
O491        O  0.50916845  0.75879456  0.04038875    -0.81500
O492        O  0.56591719  0.79200196  0.00932450    -0.75000
Al493      Al  0.52032653  0.73577078  0.02624054     1.90100
O494        O  0.54257281  0.78886198  0.06457981    -0.74100
O495        O  0.59997536  0.78549949  0.03726538    -0.73900
O496        O  0.57617326  0.78159594  0.09420706    -0.79600
O497        O  0.59767197  0.75290681  0.06152698    -0.77800
O498        O  0.55015136  0.74982356  0.04673212    -1.13900
O499        O  0.56331575  0.71665578  0.02396948    -0.73100
C500        C  0.54462032  0.70654684  0.00540971     0.97600
C501        C  0.51981665  0.77941926  0.05544938     0.94000
Al502      Al  0.56950507  0.78387517  0.05105820     1.55600
O503        O  0.50056866  0.71279398  0.05877520    -0.77800
C504        C  0.61070369  0.77353991  0.04673203     0.98200
C505        C  0.55240497  0.77853876  0.48652088     0.93000
O506        O  0.53577541  0.75527366  0.49005998    -0.83100
O507        O  0.79915314  0.85634604  0.08856484    -0.82500
C508        C  0.76520546  0.86544728  0.47273229     0.96800
O509        O  0.76149102  0.84401190  0.48293965    -0.71600
O510        O  0.80300377  0.84427638  0.50207270    -0.75200
Al511      Al  0.77169027  0.83757615  0.02164192     1.49000
C512        C  0.82592264  0.85961281  0.01501214     0.92100
O513        O  0.82474981  0.91494648  0.03610902    -0.81500
O514        O  0.75626987  0.88180590  0.07828288    -0.75000
Al515      Al  0.81020403  0.88422616  0.06119006     1.90100
O516        O  0.78968285  0.91732116  0.03703650    -0.74100
O517        O  0.72979853  0.85252168  0.03057626    -0.73900
O518        O  0.76752081  0.88309431  0.49046880    -0.79600
O519        O  0.73737284  0.82111345  0.03797397    -0.77800
O520        O  0.78144197  0.86801134  0.03910093    -1.13900
O521        O  0.78016022  0.82367235  0.05666310    -0.73100
C522        C  0.78913786  0.83269432  0.08295093     0.97600
C523        C  0.81368595  0.92810237  0.03387404     0.94000
Al524      Al  0.76231246  0.88283967  0.03477974     1.55600
O525        O  0.82971377  0.87312330  0.03853203    -0.77800
C526        C  0.72170461  0.82910400  0.03554098     0.98200
C527        C  0.77454204  0.89273153  0.09742309     0.93000
O528        O  0.79696424  0.89818108  0.08995696    -0.83100
O529        O  0.94385266  0.15295059  0.16626187    -0.82500
C530        C  0.90207122  0.14646840  0.28291832     0.96800
O531        O  0.92083634  0.16690939  0.27208337    -0.71600
O532        O  0.96023799  0.16404348  0.25110466    -0.75200
Al533      Al  0.93818193  0.17445317  0.23285985     1.49000
C534        C  0.97039267  0.15234457  0.23876984     0.92100
O535        O  0.91165085  0.09681072  0.22208694    -0.81500
O536        O  0.87624686  0.12988999  0.17999193    -0.75000
Al537      Al  0.92738096  0.12617565  0.19516348     1.90100
O538        O  0.87420541  0.09470810  0.22216453    -0.74100
O539        O  0.88131757  0.16108640  0.22560806    -0.73900
O540        O  0.88591687  0.12890910  0.26576539    -0.79600
O541        O  0.92073334  0.19107808  0.21659735    -0.77800
O542        O  0.91623657  0.14370509  0.21715614    -1.13900
O543        O  0.95925940  0.18651560  0.19696102    -0.73100
C544        C  0.95858661  0.17658296  0.17113084     0.97600
C545        C  0.88755397  0.08400778  0.22572910     0.94000
Al546      Al  0.88238143  0.12993310  0.22297184     1.55600
O547        O  0.95924786  0.13756848  0.21648622    -0.77800
C548        C  0.89731053  0.18399700  0.21894050     0.98200
C549        C  0.88221212  0.11800765  0.16075693     0.93000
O550        O  0.89866942  0.11147637  0.16743618    -0.83100
O551        O  0.81189311  0.28346232  0.25103849    -0.82500
C552        C  0.80489963  0.24288112  0.13387121     0.96800
O553        O  0.82542478  0.26193038  0.14376693    -0.71600
O554        O  0.82030111  0.30015448  0.16487448    -0.75200
Al555      Al  0.83281160  0.27936999  0.18293934     1.49000
C556        C  0.80892150  0.30989776  0.17894571     0.92100
O557        O  0.75537335  0.25071468  0.19584602    -0.81500
O558        O  0.79041872  0.21698097  0.23803041    -0.75000
Al559      Al  0.78480184  0.26684236  0.22272632     1.90100
O560        O  0.75472335  0.21396516  0.19576043    -0.74100
O561        O  0.82146902  0.22311698  0.19178391    -0.73900
O562        O  0.78844428  0.22635573  0.15192967    -0.79600
O563        O  0.85105565  0.26307832  0.19850233    -0.77800
O564        O  0.80277782  0.25663525  0.19999897    -1.13900
O565        O  0.84470809  0.30067228  0.21875815    -0.73100
C566        C  0.83524056  0.29916479  0.24527085     0.97600
C567        C  0.74384060  0.22683897  0.19013505     0.94000
Al568      Al  0.79000519  0.22300206  0.19475037     1.55600
O569        O  0.79550055  0.29880591  0.20229990    -0.77800
C570        C  0.84435930  0.23963952  0.19722492     0.98200
C571        C  0.77799437  0.22228530  0.25729547     0.93000
O572        O  0.77053319  0.23794334  0.25023560    -0.83100
O573        O  0.04973886  0.20458649  0.08675791    -0.82500
C574        C  0.09324085  0.23471705  0.47306482     0.96800
O575        O  0.07459443  0.23758653  0.48112868    -0.71600
O576        O  0.03266157  0.19720651  0.50104930    -0.75200
Al577      Al  0.05860395  0.23201513  0.01942052     1.49000
C578        C  0.02606762  0.17766713  0.01439412     0.92100
O579        O  0.08351686  0.17981801  0.03524682    -0.81500
O580        O  0.11775299  0.24744066  0.07868342    -0.75000
Al581      Al  0.06691857  0.19383382  0.05994592     1.90100
O582        O  0.12090029  0.21513825  0.03643712    -0.74100
O583        O  0.11540975  0.27474651  0.03264895    -0.73900
O584        O  0.10841502  0.23375997  0.49236817    -0.79600
O585        O  0.07585435  0.26659440  0.03424776    -0.77800
O586        O  0.07951176  0.22282084  0.03794144    -1.13900
O587        O  0.03635972  0.22372935  0.05427035    -0.73100
C588        C  0.03594527  0.21433819  0.08053084     0.97600
C589        C  0.10777335  0.19108483  0.03340271     0.94000
Al590      Al  0.11361235  0.24251798  0.03499952     1.55600
O591        O  0.03643011  0.17410565  0.03742068    -0.77800
C592        C  0.09953902  0.28233098  0.03560260     0.98200
C593        C  0.11014755  0.22881628  0.09737794     0.93000
O594        O  0.09362559  0.20658427  0.08907105    -0.83100
O595        O  0.18052116  0.47015086  0.50037212    -0.82500
C596        C  0.19256268  0.43525250  0.11348212     0.96800
O597        O  0.17102912  0.43196737  0.10457558    -0.71600
O598        O  0.17074062  0.47358195  0.08641337    -0.75200
Al599      Al  0.16132819  0.44171112  0.06678312     1.49000
C600        C  0.18275578  0.49598660  0.07544200     0.92100
O601        O  0.23912524  0.49613314  0.05242687    -0.81500
O602        O  0.20633000  0.42905861  0.00820060    -0.75000
Al603      Al  0.20807795  0.48220126  0.02795702     1.90100
O604        O  0.24182229  0.46135293  0.04958931    -0.74100
O605        O  0.17777089  0.40118377  0.05532887    -0.73900
O606        O  0.20972953  0.43774666  0.09468863    -0.79600
O607        O  0.14545433  0.40748559  0.05018634    -0.77800
O608        O  0.19204337  0.45264522  0.04893829    -1.13900
O609        O  0.14700765  0.45014959  0.03238684    -0.73100
C610        C  0.15604146  0.46104496  0.00679857     0.97600
C611        C  0.25244466  0.48519497  0.05369493     0.94000
Al612      Al  0.20740730  0.43385834  0.05177312     1.55600
O613        O  0.19720824  0.50081007  0.05252843    -0.77800
C614        C  0.15416553  0.39236269  0.05184143     0.98200
C615        C  0.21674699  0.44442908  0.48847649     0.93000
O616        O  0.22154595  0.46665552  0.49596115    -0.83100
O617        O  0.86496978  0.38954097  0.32977441    -0.82500
C618        C  0.89325776  0.43095187  0.44726124     0.96800
O619        O  0.89796747  0.41397392  0.43712784    -0.71600
O620        O  0.85660697  0.37336787  0.41558276    -0.75200
Al621      Al  0.88962968  0.39644394  0.39815437     1.49000
C622        C  0.83529551  0.36263705  0.40176246     0.92100
O623        O  0.83559282  0.41908874  0.38146383    -0.81500
O624        O  0.90577477  0.45793222  0.34391518    -0.75000
Al625      Al  0.85202308  0.40473724  0.35688050     1.90100
O626        O  0.86985230  0.45722094  0.38362134    -0.74100
O627        O  0.93079810  0.45395068  0.39219358    -0.73900
O628        O  0.89106165  0.44637739  0.42940297    -0.79600
O629        O  0.92428246  0.41560096  0.38294582    -0.77800
O630        O  0.87977931  0.41715432  0.38074858    -1.13900
O631        O  0.88252128  0.37510976  0.36295188    -0.73100
C632        C  0.87436913  0.37548376  0.33628697     0.97600
C633        C  0.84576939  0.44310963  0.38496702     0.94000
Al634      Al  0.89791825  0.45097801  0.38688176     1.55600
O635        O  0.83222376  0.37307900  0.37826941    -0.77800
C636        C  0.93952203  0.43933507  0.38600152     0.98200
C637        C  0.88860018  0.45071899  0.32338123     0.93000
O638        O  0.86585985  0.43313108  0.32910737    -0.83100
O639        O  0.13606643  0.51127856  0.40533860    -0.82500
C640        C  0.09222419  0.52134584  0.30083638     0.96800
O641        O  0.09970956  0.50656164  0.31110262    -0.71600
O642        O  0.13096425  0.49764579  0.34364005    -0.75200
Al643      Al  0.09855618  0.49531515  0.35182120     1.49000
C644        C  0.15401241  0.51572618  0.34248169     0.92100
O645        O  0.15398638  0.57669204  0.37141477    -0.81500
O646        O  0.10090935  0.55868172  0.40154134    -0.75000
Al647      Al  0.14180107  0.54222511  0.38592458     1.90100
O648        O  0.12238595  0.57356832  0.34338301    -0.74100
O649        O  0.06316667  0.51734185  0.37768584    -0.73900
O650        O  0.08476029  0.53275863  0.31906758    -0.79600
O651        O  0.06244449  0.48449825  0.35601021    -0.77800
O652        O  0.11155087  0.52733935  0.36630951    -1.13900
O653        O  0.09703457  0.48131468  0.39179510    -0.73100
C654        C  0.11668583  0.48910066  0.40864799     0.97600
C655        C  0.14507953  0.58641972  0.35286989     0.94000
Al656      Al  0.09427612  0.54405411  0.36090255     1.55600
O657        O  0.15984966  0.53765722  0.35257319    -0.77800
C658        C  0.05087595  0.49411807  0.37001751     0.98200
C659        C  0.11324863  0.55730954  0.42436107     0.93000
O660        O  0.12807126  0.54831763  0.42160784    -0.83100
O661        O  0.79531192  0.92001746  0.34231570    -0.82500
C662        C  0.75931923  0.91252742  0.22274690     0.96800
O663        O  0.75144517  0.89342373  0.24077523    -0.71600
O664        O  0.78884999  0.88920154  0.26489258    -0.75200
Al665      Al  0.76115626  0.89124377  0.28237732     1.49000
C666        C  0.81177360  0.89902814  0.27360385     0.92100
O667        O  0.82727168  0.96323949  0.27361295    -0.81500
O668        O  0.76419440  0.95610616  0.31330925    -0.75000
Al669      Al  0.80916392  0.94023562  0.30698422     1.90100
O670        O  0.79865788  0.97495599  0.26599390    -0.74100
O671        O  0.73035236  0.91943330  0.27586623    -0.73900
O672        O  0.76809816  0.93511108  0.23266397    -0.79600
O673        O  0.73058745  0.88758770  0.29925446    -0.77800
O674        O  0.77895389  0.92523118  0.28757538    -1.13900
O675        O  0.76747770  0.88277396  0.32276825    -0.73100
C676        C  0.77958384  0.89639355  0.34558398     0.97600
C677        C  0.82128243  0.97912437  0.26298877     0.94000
Al678      Al  0.76632835  0.94465380  0.27322823     1.55600
O679        O  0.82114461  0.91790802  0.29176551    -0.77800
C680        C  0.71838036  0.89787773  0.28903431     0.98200
C681        C  0.78344149  0.96728936  0.33091073     0.93000
O682        O  0.80321887  0.96515170  0.32721922    -0.83100
O683        O  0.53241610  0.78809788  0.23998802    -0.82500
C684        C  0.56490352  0.81470795  0.36168194     0.96800
O685        O  0.57399156  0.80472755  0.34359026    -0.71600
O686        O  0.53807869  0.76297117  0.31829698    -0.75200
Al687      Al  0.56532154  0.79338777  0.30158146     1.49000
C688        C  0.51565798  0.74919546  0.30832576     0.92100
O689        O  0.49723023  0.79562883  0.30787655    -0.81500
O690        O  0.56021846  0.85425770  0.27115353    -0.75000
Al691      Al  0.51696000  0.79262728  0.27513921     1.90100
O692        O  0.52438641  0.83614187  0.31726984    -0.74100
O693        O  0.59405442  0.85213096  0.30939502    -0.73900
O694        O  0.55525426  0.82777122  0.35168941    -0.79600
O695        O  0.59535810  0.82119670  0.28541518    -0.77800
O696        O  0.54653311  0.80843315  0.29590862    -1.13900
O697        O  0.56043813  0.77941211  0.26092738    -0.73100
C698        C  0.54893051  0.78119641  0.23756916     0.97600
C699        C  0.50205826  0.81691274  0.31919759     0.94000
Al700      Al  0.55759462  0.83992778  0.31107360     1.55600
O701        O  0.50609012  0.75819761  0.28957799    -0.77800
C702        C  0.60675917  0.84366582  0.29567859     0.98200
C703        C  0.54173511  0.84566207  0.25229492     0.93000
O704        O  0.52218872  0.82346890  0.25549638    -0.83100
O705        O  0.57611693  0.13336557  0.07987421    -0.82500
C706        C  0.57157185  0.09843315  0.19961036     0.96800
O707        O  0.55230071  0.08966262  0.18189042    -0.71600
O708        O  0.54692045  0.12671555  0.15898983    -0.75200
Al709      Al  0.54925131  0.09959308  0.14064239     1.49000
C710        C  0.55579202  0.14939539  0.14960294     0.92100
O711        O  0.62101861  0.16723118  0.14638205    -0.81500
O712        O  0.61459294  0.10427197  0.10735951    -0.75000
Al713      Al  0.59703260  0.14806613  0.11420779     1.90100
O714        O  0.63290218  0.13872242  0.15380385    -0.74100
O715        O  0.57863482  0.07011398  0.14572666    -0.73900
O716        O  0.59409185  0.10777888  0.18901325    -0.79600
O717        O  0.54640025  0.06980821  0.12292507    -0.77800
O718        O  0.58310836  0.11808146  0.13426487    -1.13900
O719        O  0.53944981  0.10572970  0.10086886    -0.73100
C720        C  0.55253686  0.11737639  0.07741674     0.97600
C721        C  0.63780885  0.16170610  0.15468593     0.94000
Al722      Al  0.60326759  0.10618109  0.14794480     1.55600
O723        O  0.57423502  0.15911478  0.13059987    -0.77800
C724        C  0.55748585  0.05799056  0.13195278     0.98200
C725        C  0.62487956  0.12327593  0.08902448     0.93000
O726        O  0.62196639  0.14262872  0.09261198    -0.83100
O727        O  0.44976868  0.86932041  0.16965583    -0.82500
C728        C  0.47310499  0.90780983  0.05044688     0.96800
O729        O  0.46138907  0.91422938  0.06959393    -0.71600
O730        O  0.42121040  0.87703128  0.09601209    -0.75200
Al731      Al  0.45168639  0.90436511  0.11194908     1.49000
C732        C  0.40847461  0.85424936  0.10522559     0.92100
O733        O  0.45720627  0.83903461  0.09762844    -0.81500
O734        O  0.51476932  0.90081351  0.13819750    -0.75000
Al735      Al  0.45393627  0.85607397  0.13296490     1.90100
O736        O  0.49745099  0.86779284  0.08925702    -0.74100
O737        O  0.51094462  0.93579096  0.10375664    -0.73900
O738        O  0.48796658  0.89988891  0.05924360    -0.79600
O739        O  0.47881894  0.93486061  0.12776429    -0.77800
O740        O  0.46834886  0.88681000  0.11455828    -1.13900
O741        O  0.43939129  0.89751501  0.15366302    -0.73100
C742        C  0.44265205  0.88527633  0.17530718     0.97600
C743        C  0.47905427  0.84494525  0.08698732     0.94000
Al744      Al  0.50005205  0.90004847  0.09892415     1.55600
O745        O  0.41888180  0.84443816  0.12120755    -0.77800
C746        C  0.50129488  0.94723964  0.11771681     0.98200
C747        C  0.50763156  0.88045604  0.15366922     0.93000
O748        O  0.48551151  0.86099125  0.15006450    -0.83100
O749        O  0.87560128  0.08889689  0.40943694    -0.82500
C750        C  0.85297510  0.09537741  0.03389044     0.64400
O751        O  0.86521476  0.11466642  0.01636194    -0.71600
O752        O  0.90393336  0.11845161  0.48827385    -0.75200
Al753      Al  0.87400181  0.11692935  0.47259782     1.49000
C754        C  0.91727759  0.11029092  0.47571511     0.92100
O755        O  0.87089288  0.04656312  0.47649776    -0.81500
O756        O  0.81134131  0.05076893  0.44350884    -0.75000
Al757      Al  0.87266942  0.06901630  0.44413216     1.90100
O758        O  0.83094410  0.03382236  0.48909316    -0.74100
O759        O  0.81503789  0.08766954  0.48070759    -0.73900
O760        O  0.83912273  0.07319270  0.02290590    -0.79600
O761        O  0.84662742  0.12032359  0.45763721    -0.77800
O762        O  0.85792736  0.08308927  0.46652700    -1.13900
O763        O  0.88762543  0.12601497  0.43172049    -0.73100
C764        C  0.88407604  0.11269753  0.40788891     0.97600
C765        C  0.84994947  0.03019720  0.48884219     0.94000
Al766      Al  0.82677487  0.06309560  0.48276850     1.55600
O767        O  0.90760941  0.09255038  0.45604571    -0.77800
C768        C  0.82385028  0.10904501  0.46716807     0.98200
C769        C  0.81891130  0.03973664  0.42503208     0.93000
O770        O  0.84133223  0.04296526  0.42658345    -0.83100
O771        O  0.74590364  0.21549172  0.00613659    -0.82500
C772        C  0.75492697  0.19124738  0.38457664     0.96800
O773        O  0.77376393  0.20319983  0.40258712    -0.71600
O774        O  0.77622692  0.24386663  0.42655847    -0.75200
Al775      Al  0.77553983  0.21479055  0.44421108     1.49000
C776        C  0.76803070  0.25734061  0.43859726     0.92100
O777        O  0.70463046  0.20953812  0.43759639    -0.81500
O778        O  0.70961327  0.15185881  0.47618252    -0.75000
Al779      Al  0.72679739  0.21271409  0.47110566     1.90100
O780        O  0.69285179  0.16933384  0.42778391    -0.74100
O781        O  0.74732647  0.15515363  0.44054573    -0.73900
O782        O  0.73257226  0.17687905  0.39504376    -0.79600
O783        O  0.78017097  0.18853190  0.46083256    -0.77800
O784        O  0.74163320  0.19789031  0.45040801    -1.13900
O785        O  0.78403068  0.22961628  0.48465972    -0.73100
C786        C  0.76984849  0.22467058  0.00819372     0.97600
C787        C  0.68878245  0.18803870  0.42601213     0.94000
Al788      Al  0.72229762  0.16599000  0.43609713     1.55600
O789        O  0.75013381  0.24769606  0.45822554    -0.77800
C790        C  0.76921750  0.16542859  0.45285942     0.98200
C791        C  0.69780490  0.15953417  0.49329371     0.93000
O792        O  0.70049478  0.18163325  0.48974356    -0.83100
C793        C  0.76945890  0.12520646  0.46677638    -0.21000
C794        C  0.78290917  0.15085455  0.45663571    -0.07600
C795        C  0.80929162  0.16215179  0.44921243     0.13300
C796        C  0.82152898  0.14770784  0.45254190    -0.21100
C797        C  0.80845058  0.12214943  0.46330922    -0.07600
C798        C  0.78189622  0.11074383  0.47057461     0.13300
C799        C  0.76640856  0.08351245  0.48226260    -0.24400
H800        H  0.74919277  0.11659689  0.47222850     0.14500
H801        H  0.84179321  0.15682599  0.44694937     0.14600
C802        C  0.82470758  0.18924032  0.43677918    -0.24400
H803        H  0.74592629  0.07775632  0.48596224     0.04800
H804        H  0.77417161  0.08160902  0.50468287     0.08000
H805        H  0.76703743  0.07007257  0.46526804     0.08000
H806        H  0.82647571  0.20325689  0.45454481     0.08000
H807        H  0.81525030  0.19139994  0.41593396     0.08000
H808        H  0.84451553  0.19415173  0.43017427     0.04800
C809        C  0.66701201  0.13075038  0.06989295    -0.21000
C810        C  0.64150409  0.12408416  0.06345340    -0.07600
C811        C  0.63394533  0.12349943  0.03256000     0.13300
C812        C  0.65244396  0.13155315  0.00906666    -0.21100
C813        C  0.67841063  0.14074975  0.01582862    -0.07600
C814        C  0.68570679  0.13956003  0.04637273     0.13300
C815        C  0.71347007  0.14935628  0.05429255    -0.24400
H816        H  0.67276467  0.13114922  0.09360373     0.14500
H817        H  0.64702605  0.13287217  0.98560119     0.14600
C818        C  0.60667914  0.11586119  0.02452257    -0.24400
H819        H  0.71595839  0.14680538  0.07912252     0.04800
H820        H  0.72673911  0.17615181  0.54835170     0.08000
H821        H  0.72079072  0.13863494  0.04090037     0.08000
H822        H  0.60188838  0.12985073  0.03457498     0.08000
H823        H  0.59332194  0.09635154  0.03373703     0.08000
H824        H  0.60381259  0.11563401  0.99923715     0.04800
C825        C  0.51834516  0.01706445  0.11934375    -0.21000
C826        C  0.54442391  0.02962679  0.12767941    -0.07600
C827        C  0.55645458  0.01469045  0.13244800     0.13300
C828        C  0.54201129  0.98782773  0.12871909    -0.21100
C829        C  0.51581983  0.97548037  0.12122810    -0.07600
C830        C  0.50390570  0.99038295  0.11624285     0.13300
C831        C  0.47610121  0.97853523  0.10676454    -0.24400
H832        H  0.50883809  0.02814129  0.11568593     0.14500
H833        H  0.55107007  0.97630545  0.13225480     0.14600
C834        C  0.58434825  0.02662754  0.14130427    -0.24400
H835        H  0.47065793  0.99333072  0.10174428     0.04800
H836        H  0.46334893  0.96618092  0.12555811     0.08000
H837        H  0.47266317  0.96697319  0.08561560     0.08000
H838        H  0.58752485  0.03583958  0.16422041     0.08000
H839        H  0.59659283  0.04112021  0.12377427     0.08000
H840        H  0.59055152  0.01207093  0.14286205     0.04800
C841        C  0.53951722  0.85004943  0.19660143    -0.21000
C842        C  0.54202308  0.86097018  0.22569640    -0.07600
C843        C  0.53900702  0.88268223  0.22904022     0.13300
C844        C  0.53062325  0.89117683  0.20365748    -0.21100
C845        C  0.52495551  0.87800221  0.17556218    -0.07600
C846        C  0.53104009  0.85833642  0.17142844     0.13300
C847        C  0.52725234  0.84508866  0.14087765    -0.24400
H848        H  0.54223554  0.83359435  0.19415705     0.14500
H849        H  0.52619859  0.90646300  0.20657213     0.14600
C850        C  0.54263464  0.89546736  0.25982116    -0.24400
H851        H  0.53416008  0.83104867  0.14133007     0.04800
H852        H  0.53805336  0.85955239  0.12265544     0.08000
H853        H  0.50656413  0.83441115  0.13499519     0.08000
H854        H  0.56261329  0.90268755  0.26790208     0.08000
H855        H  0.52898563  0.88146104  0.27686779     0.08000
H856        H  0.53923258  0.91199729  0.25851356     0.04800
C857        C  0.78999404  0.99527833  0.40967022    -0.21000
C858        C  0.80160071  0.02143952  0.40212640    -0.07600
C859        C  0.80241724  0.02900187  0.37118808     0.13300
C860        C  0.79327849  0.01019949  0.34809736    -0.21100
C861        C  0.78413197  0.98429736  0.35547614    -0.07600
C862        C  0.78155937  0.97657191  0.38658055     0.13300
C863        C  0.77163371  0.94887426  0.39528300    -0.24400
H864        H  0.78985105  0.98970827  0.43348117     0.14500
H865        H  0.79542935  0.01597706  0.32410329     0.14600
C866        C  0.81454700  0.05698205  0.36247638    -0.24400
H867        H  0.77033798  0.94606737  0.42064671     0.04800
H868        H  0.78478633  0.94249994  0.38630484     0.08000
H869        H  0.75217821  0.93665163  0.38543076     0.08000
H870        H  0.83507208  0.06738907  0.36934720     0.08000
H871        H  0.80432267  0.06561119  0.37434810     0.08000
H872        H  0.81359811  0.05959210  0.33727878     0.04800
C873        C  0.67704239  0.89823321  0.29332441    -0.21000
C874        C  0.68985188  0.88407244  0.29119500    -0.07600
C875        C  0.67506167  0.85691240  0.28926061     0.13300
C876        C  0.64823318  0.84481277  0.29037963    -0.21100
C877        C  0.63531713  0.85876945  0.29338124    -0.07600
C878        C  0.64998434  0.88595707  0.29466671     0.13300
C879        C  0.63739817  0.90219071  0.29671655    -0.24400
H880        H  0.68828981  0.91903524  0.29420230     0.14500
H881        H  0.63722022  0.82400589  0.28928478     0.14600
C882        C  0.68711432  0.84029919  0.28490679    -0.24400
H883        H  0.65174612  0.92305053  0.29572276     0.04800
H884        H  0.62684660  0.89843809  0.31883690     0.08000
H885        H  0.62387999  0.89769790  0.27721016     0.08000
H886        H  0.69863697  0.84149856  0.30541986     0.08000
H887        H  0.69947385  0.84657389  0.26403142     0.08000
H888        H  0.67244836  0.81971520  0.28185624     0.04800
C889        C  0.98356530  0.47082369  0.40324770    -0.21000
C890        C  0.96794474  0.45077511  0.38318025    -0.07600
C891        C  0.97984572  0.44369135  0.36011453     0.13300
C892        C  0.00690311  0.45759705  0.35697189    -0.21100
C893        C  0.02252343  0.47847541  0.37630115    -0.07600
C894        C  0.01047744  0.48453603  0.40038790     0.13300
C895        C  0.02567659  0.50507014  0.42374594    -0.24400
H896        H  0.97453711  0.47599123  0.42130770     0.14500
H897        H  0.01582532  0.45260661  0.33863168     0.14600
C898        C  0.96410983  0.42226431  0.33795450    -0.24400
H899        H  0.01326162  0.50559680  0.44235064     0.04800
H900        H  0.03528562  0.52427702  0.41254994     0.08000
H901        H  0.04011489  0.50117919  0.43462154     0.08000
H902        H  0.95043114  0.42636978  0.32549163     0.08000
H903        H  0.95323603  0.40382133  0.35069904     0.08000
H904        H  0.97638037  0.41993276  0.32062730     0.04800
C905        C  0.81300037  0.32942812  0.44285782    -0.21000
C906        C  0.81439544  0.33664950  0.41177852    -0.07600
C907        C  0.79770253  0.31783397  0.39026843     0.13300
C908        C  0.78165107  0.29229874  0.40007363    -0.21100
C909        C  0.78110272  0.28505378  0.43082189    -0.07600
C910        C  0.79643856  0.30394519  0.45264639     0.13300
C911        C  0.79649689  0.29691889  0.48597201    -0.24400
H912        H  0.82554577  0.34361758  0.45943156     0.14500
H913        H  0.76998366  0.27763755  0.38344062     0.14600
C914        C  0.79739288  0.32392897  0.35659966    -0.24400
H915        H  0.79650403  0.31508199  0.00089051     0.04800
H916        H  0.79256642  0.28398182  0.99269354     0.08000
H917        H  0.77687191  0.28878003  0.49578161     0.08000
H918        H  0.81678324  0.33147757  0.34645422     0.08000
H919        H  0.79113425  0.33835709  0.35390747     0.08000
H920        H  0.78388663  0.30665971  0.34322961     0.04800
C921        C  0.14513127  0.45544293  0.45085146    -0.21000
C922        C  0.13985548  0.45907203  0.48123572    -0.07600
C923        C  0.12187559  0.46722494  0.48704464     0.13300
C924        C  0.11140598  0.47378975  0.46205700    -0.21100
C925        C  0.11863497  0.47237814  0.43177143    -0.07600
C926        C  0.13467932  0.46190503  0.42603305     0.13300
C927        C  0.14256071  0.45896638  0.39404673    -0.24400
H928        H  0.15870948  0.44890641  0.44643076     0.14500
H929        H  0.09947465  0.48229874  0.46626346     0.14600
C930        C  0.11659444  0.47589797  0.02164347    -0.24400
H931        H  0.16353484  0.47211854  0.39090742     0.04800
H932        H  0.13818105  0.43885371  0.39071702     0.08000
H933        H  0.13212627  0.46305922  0.37598360     0.08000
H934        H  0.13494898  0.49016575  0.03243256     0.08000
H935        H  0.10777459  0.45786784  0.03539726     0.08000
H936        H  0.10334113  0.48375516  0.02222910     0.04800
C937        C  0.11852163  0.35293956  0.02704177    -0.21000
C938        C  0.13722963  0.36398872  0.05024055    -0.07600
C939        C  0.14098110  0.34760601  0.07052811     0.13300
C940        C  0.12721564  0.32095746  0.06595327    -0.21100
C941        C  0.10965964  0.30999062  0.04178087    -0.07600
C942        C  0.10481262  0.32605521  0.02241794     0.13300
C943        C  0.08636769  0.31501045  0.99590812    -0.24400
H944        H  0.11558436  0.36541918  0.01155629     0.14500
H945        H  0.13072482  0.30853125  0.08089286     0.14600
C946        C  0.15938243  0.35798608  0.09730557    -0.24400
H947        H  0.08529211  0.33023773  0.98253710     0.04800
H948        H  0.06682589  0.30132186  0.00470100     0.08000
H949        H  0.09269978  0.30474048  0.98011226     0.08000
H950        H  0.15477257  0.37036208  0.11175254     0.08000
H951        H  0.17949345  0.36923044  0.08894809     0.08000
H952        H  0.15813364  0.34230727  0.11216515     0.04800
C953        C  0.95569398  0.12451139  0.01675021    -0.21000
C954        C  0.94481082  0.12287758  0.48344969    -0.07600
C955        C  0.96396653  0.13852732  0.46189535     0.13300
C956        C  0.98940735  0.15441661  0.47191264    -0.21100
C957        C  0.00005389  0.15713508  0.00453157    -0.07600
C958        C  0.98140981  0.13986950  0.02604172     0.13300
C959        C  0.98788079  0.13821725  0.05923381    -0.24400
H960        H  0.94118174  0.11227917  0.03336801     0.14500
H961        H  0.00390585  0.16717421  0.45561492     0.14600
C962        C  0.95726945  0.13963155  0.42872928    -0.24400
H963        H  0.97075831  0.12418530  0.07259398     0.04800
H964        H  0.99554131  0.15719612  0.07047540     0.08000
H965        H  0.00228854  0.13182837  0.06047445     0.08000
H966        H  0.94292528  0.14610023  0.42728842     0.08000
H967        H  0.94911831  0.12026717  0.41830584     0.08000
H968        H  0.97439258  0.15319782  0.41503431     0.04800
C969        C  0.69872719  0.21923256  0.18751349    -0.21000
C970        C  0.71722995  0.21288431  0.17767012    -0.07600
C971        C  0.70942446  0.19158427  0.15771355     0.13300
C972        C  0.68358189  0.17662234  0.14992105    -0.21100
C973        C  0.66475918  0.18154009  0.16160487    -0.07600
C974        C  0.67244991  0.20369564  0.17971983     0.13300
C975        C  0.65306154  0.21035503  0.19178239    -0.24400
H976        H  0.70461102  0.23562218  0.20249509     0.14500
H977        H  0.67782600  0.16022742  0.13498905     0.14600
C978        C  0.72783537  0.18396609  0.14422328    -0.24400
H979        H  0.66225926  0.22798703  0.20610513     0.04800
H980        H  0.63862942  0.19434334  0.20616544     0.08000
H981        H  0.64322917  0.21378505  0.17225897     0.08000
H982        H  0.73587763  0.17713239  0.16247827     0.08000
H983        H  0.74340053  0.20034737  0.13155791     0.08000
H984        H  0.71821514  0.16794574  0.12758552     0.04800
C985        C  0.85976621  0.33096570  0.32245137    -0.21000
C986        C  0.87250362  0.35683004  0.31333459    -0.07600
C987        C  0.87736607  0.36325953  0.28183511     0.13300
C988        C  0.86673794  0.34356937  0.26000514    -0.21100
C989        C  0.85097109  0.31781245  0.26906334    -0.07600
C990        C  0.84824299  0.31130297  0.30070891     0.13300
C991        C  0.83268695  0.28388689  0.31186224    -0.24400
H992        H  0.85640305  0.32619706  0.34674937     0.14500
H993        H  0.86925167  0.34860705  0.23574797     0.14600
C994        C  0.89304976  0.39065670  0.27065485    -0.24400
H995        H  0.83407795  0.28241226  0.33720983     0.04800
H996        H  0.84000621  0.27216988  0.30090598     0.08000
H997        H  0.81205132  0.27583287  0.30634692     0.08000
H998        H  0.90156024  0.40459894  0.28978791     0.08000
H999        H  0.90915799  0.39263374  0.25613323     0.08000
H1000       H  0.88081842  0.39580502  0.25667300     0.04800
C1001       C  0.81089084  0.23362014  0.07953258    -0.21000
C1002       C  0.79839523  0.24102233  0.10099205    -0.07600
C1003       C  0.77794004  0.24456161  0.09126509     0.13300
C1004       C  0.76982637  0.23970841  0.06072700    -0.21100
C1005       C  0.78163577  0.23162143  0.03919438    -0.07600
C1006       C  0.80269546  0.22877066  0.04860320     0.13300
C1007       C  0.81567197  0.21937355  0.02678923    -0.24400
H1008       H  0.82642866  0.23074292  0.08724478     0.14500
H1009       H  0.75389158  0.24221959  0.05370291     0.14600
C1010       C  0.76408996  0.25352194  0.11236390    -0.24400
H1011       H  0.83101328  0.21730011  0.03838059     0.04800
H1012       H  0.82469559  0.23326472  0.00754197     0.08000
H1013       H  0.80135130  0.20027631  0.01756534     0.08000
H1014       H  0.76433586  0.27047053  0.10190154     0.08000
H1015       H  0.77286142  0.25908816  0.13550024     0.08000
H1016       H  0.74370714  0.23819704  0.11488754     0.04800
C1017       C  0.74792982  0.20580618  0.30119558    -0.21000
C1018       C  0.77127707  0.21033329  0.28836576    -0.07600
C1019       C  0.78835134  0.20619644  0.30668569     0.13300
C1020       C  0.78219602  0.19909994  0.33784486    -0.21100
C1021       C  0.75912697  0.19540490  0.35086642    -0.07600
C1022       C  0.74158698  0.19839380  0.33199871     0.13300
C1023       C  0.71671822  0.19524016  0.34441773    -0.24400
H1024       H  0.73474727  0.20880179  0.28712135     0.14500
H1025       H  0.79564974  0.19682981  0.35227324     0.14600
C1026       C  0.81340971  0.21015718  0.29395308    -0.24400
H1027       H  0.70610562  0.19969207  0.32680001     0.04800
H1028       H  0.72063188  0.20839718  0.36415340     0.08000
H1029       H  0.70405770  0.17503796  0.35183053     0.08000
H1030       H  0.82508867  0.23000284  0.28488459     0.08000
H1031       H  0.80959210  0.19630936  0.27506198     0.08000
H1032       H  0.82488376  0.20713008  0.31178920     0.04800
C1033       C  0.85122618  0.04051882  0.21576491    -0.21000
C1034       C  0.87384447  0.05598572  0.23232873    -0.07600
C1035       C  0.88107421  0.04473144  0.25604846     0.13300
C1036       C  0.86448893  0.01872388  0.26405347    -0.21100
C1037       C  0.84080051  0.00390829  0.24906002    -0.07600
C1038       C  0.83468248  0.01469740  0.22368467     0.13300
C1039       C  0.81073514  0.99916401  0.20477299    -0.24400
H1040       H  0.84603503  0.04899906  0.19701276     0.14500
H1041       H  0.86922895  0.01046788  0.28343841     0.14600
C1042       C  0.90526988  0.06046970  0.27425591    -0.24400
H1043       H  0.81024312  0.01007675  0.18433772     0.04800
H1044       H  0.79329078  0.99400730  0.21859167     0.08000
H1045       H  0.81011228  0.98141562  0.19643109     0.08000
H1046       H  0.90454320  0.07664545  0.28552082     0.08000
H1047       H  0.92223742  0.06816985  0.25875808     0.08000
H1048       H  0.90770733  0.04884517  0.29246779     0.04800
C1049       C  0.88423535  0.20785330  0.18351157    -0.21000
C1050       C  0.88807112  0.20235254  0.21378785    -0.07600
C1051       C  0.88036022  0.21212713  0.23858053     0.13300
C1052       C  0.86811844  0.22644790  0.23251469    -0.21100
C1053       C  0.86285280  0.23058165  0.20224072    -0.07600
C1054       C  0.87131275  0.22150113  0.17745396     0.13300
C1055       C  0.86590492  0.22549864  0.14464675    -0.24400
H1056       H  0.89017000  0.20030092  0.16458322     0.14500
H1057       H  0.86130676  0.23314863  0.25146080     0.14600
C1058       C  0.88443111  0.20679827  0.27139272    -0.24400
H1059       H  0.87396978  0.21737663  0.12800878     0.04800
H1060       H  0.87462198  0.24639099  0.13985521     0.08000
H1061       H  0.84484094  0.21595195  0.14083450     0.08000
H1062       H  0.90524424  0.21447184  0.27554462     0.08000
H1063       H  0.87389116  0.18575486  0.27581957     0.08000
H1064       H  0.87742871  0.21593060  0.28803362     0.04800
C1065       C  0.87937919  0.14128596  0.33230328    -0.21000
C1066       C  0.89987192  0.14185860  0.31619728    -0.07600
C1067       C  0.91594555  0.13430427  0.33103820     0.13300
C1068       C  0.91078619  0.12564906  0.36148634    -0.21100
C1069       C  0.89028994  0.12490787  0.37753627    -0.07600
C1070       C  0.87455784  0.13310741  0.36314049     0.13300
C1071       C  0.85221365  0.13226189  0.37992227    -0.24400
H1072       H  0.86684734  0.14665701  0.32052314     0.14500
H1073       H  0.92247192  0.11892814  0.37266325     0.14600
C1074       C  0.93816368  0.13474246  0.31455824    -0.24400
H1075       H  0.84145370  0.13867401  0.36501635     0.04800
H1076       H  0.85938261  0.14515333  0.40017461     0.08000
H1077       H  0.83872035  0.11235337  0.38783093     0.08000
H1078       H  0.95222148  0.15490608  0.30852443     0.08000
H1079       H  0.93142042  0.12296762  0.29334356     0.08000
H1080       H  0.94809654  0.12717779  0.32914088     0.04800
C1081       C  0.86432817  0.08713385  0.11811431    -0.21000
C1082       C  0.87011057  0.11107046  0.13007105    -0.07600
C1083       C  0.86704052  0.12857809  0.11127002     0.13300
C1084       C  0.86044773  0.12253398  0.08014609    -0.21100
C1085       C  0.85596415  0.09905874  0.06770272    -0.07600
C1086       C  0.85696096  0.08071415  0.08738433     0.13300
C1087       C  0.85135561  0.05472810  0.07612984    -0.24400
H1088       H  0.86623588  0.07356109  0.13283363     0.14500
H1089       H  0.85925542  0.13642964  0.06527854     0.14600
C1090       C  0.87165250  0.15397380  0.12350374    -0.24400
H1091       H  0.85399435  0.04333091  0.09447754     0.04800
H1092       H  0.86441102  0.05695396  0.05678467     0.08000
H1093       H  0.83104159  0.04370143  0.06858444     0.08000
H1094       H  0.89133678  0.16507990  0.13302233     0.08000
H1095       H  0.85753636  0.15060542  0.14199443     0.08000
H1096       H  0.86951712  0.16579514  0.10529538     0.04800
C1097       C  0.00316878  0.20701285  0.15659737    -0.21000
C1098       C  0.97744987  0.19207733  0.14737806    -0.07600
C1099       C  0.97126053  0.18921365  0.11572827     0.13300
C1100       C  0.99119217  0.19966248  0.09406514    -0.21100
C1101       C  0.01692534  0.21176635  0.10342567    -0.07600
C1102       C  0.02311398  0.21652157  0.13494653     0.13300
C1103       C  0.05062127  0.23095515  0.14585314    -0.24400
H1104       H  0.00780044  0.20934269  0.18092634     0.14500
H1105       H  0.98665447  0.19631758  0.06975759     0.14600
C1106       C  0.94383848  0.17495092  0.10464126    -0.24400
H1107       H  0.05179746  0.23417797  0.17110875     0.04800
H1108       H  0.06095192  0.25001125  0.13428203     0.08000
H1109       H  0.06049922  0.21997708  0.14069935     0.08000
H1110       H  0.93327525  0.18397926  0.11454477     0.08000
H1111       H  0.93431680  0.15439523  0.11143621     0.08000
H1112       H  0.94268271  0.17566185  0.07916618     0.04800
C1113       C  0.84863211  0.96696818  0.00684391    -0.21000
C1114       C  0.82786745  0.95624225  0.02765749    -0.07600
C1115       C  0.81899390  0.97225647  0.04003867     0.13300
C1116       C  0.82937037  0.99742674  0.02925883    -0.21100
C1117       C  0.84819190  0.00744558  0.00618695    -0.07600
C1118       C  0.85568718  0.99071040  0.48909004     0.13300
C1119       C  0.87317539  0.00008165  0.46143696    -0.24400
H1120       H  0.85295088  0.95335174  0.48898192     0.14500
H1121       H  0.82129065  0.00885593  0.03749345     0.14600
C1122       C  0.79787410  0.96303646  0.06393609    -0.24400
H1123       H  0.87786142  0.98542847  0.45315190     0.04800
H1124       H  0.89147740  0.01763744  0.46747460     0.08000
H1125       H  0.86371457  0.00450880  0.44232192     0.08000
H1126       H  0.80211769  0.95389599  0.08344372     0.08000
H1127       H  0.77906850  0.94920197  0.05367983     0.08000
H1128       H  0.79588379  0.97911126  0.07341079     0.04800
C1129       C  0.79601008  0.89788902  0.39787297    -0.21000
C1130       C  0.77572058  0.88521223  0.37694016    -0.07600
C1131       C  0.75208292  0.86423157  0.38742328     0.13300
C1132       C  0.74927425  0.85719622  0.41875587    -0.21100
C1133       C  0.76917011  0.87113529  0.43966249    -0.07600
C1134       C  0.79292449  0.89139404  0.42904791     0.13300
C1135       C  0.81501251  0.90659794  0.45069462    -0.24400
H1136       H  0.81423630  0.91371807  0.39000741     0.14500
H1137       H  0.73116396  0.84158361  0.42723029     0.14600
C1138       C  0.72936876  0.85007907  0.36635330    -0.24400
H1139       H  0.83272599  0.92061371  0.43824735     0.04800
H1140       H  0.81937425  0.89346058  0.46403062     0.08000
H1141       H  0.80983175  0.91757591  0.46674070     0.08000
H1142       H  0.73419536  0.84068373  0.34762180     0.08000
H1143       H  0.72392937  0.86373367  0.35640546     0.08000
H1144       H  0.71234510  0.83484720  0.37876726     0.04800
C1145       C  0.74527537  0.88721482  0.14110704    -0.21000
C1146       C  0.77037716  0.89945277  0.12891664    -0.07600
C1147       C  0.79122344  0.91700723  0.14778105     0.13300
C1148       C  0.78613897  0.92197361  0.17749398    -0.21100
C1149       C  0.76143164  0.90886066  0.18986554    -0.07600
C1150       C  0.74065962  0.89128082  0.17173115     0.13300
C1151       C  0.71377892  0.87704748  0.18461420    -0.24400
H1152       H  0.72934330  0.87367008  0.12707884     0.14500
H1153       H  0.80193894  0.93504222  0.19209512     0.14600
C1154       C  0.81916030  0.93002449  0.13807661    -0.24400
H1155       H  0.69964815  0.86457089  0.16703547     0.04800
H1156       H  0.70813254  0.89101697  0.19281537     0.08000
H1157       H  0.71284820  0.86464582  0.20414321     0.08000
H1158       H  0.82236879  0.94123541  0.11663412     0.08000
H1159       H  0.82510654  0.91541914  0.13479566     0.08000
H1160       H  0.83215888  0.94363068  0.15576209     0.04800
C1161       C  0.50621167  0.83442856  0.05454853    -0.21000
C1162       C  0.48482834  0.82540457  0.07418357    -0.07600
C1163       C  0.47306579  0.79963589  0.08508543     0.13300
C1164       C  0.48405137  0.78434283  0.07757877    -0.21100
C1165       C  0.50670070  0.79440812  0.06013021    -0.07600
C1166       C  0.51740750  0.81946767  0.04766519     0.13300
C1167       C  0.54085053  0.83070604  0.02713706    -0.24400
H1168       H  0.51509048  0.85392825  0.04569543     0.14500
H1169       H  0.47572999  0.76495922  0.08664752     0.14600
C1170       C  0.44997361  0.78857570  0.10603264    -0.24400
H1171       H  0.54593600  0.85009137  0.01841335     0.04800
H1172       H  0.53715373  0.81807102  0.00695240     0.08000
H1173       H  0.55766301  0.83269986  0.04005315     0.08000
H1174       H  0.43376757  0.78897014  0.09429511     0.08000
H1175       H  0.45477074  0.79986552  0.12763114     0.08000
H1176       H  0.44349436  0.76830251  0.11237710     0.04800
C1177       C  0.65390232  0.78096460  0.06361237    -0.21000
C1178       C  0.63893098  0.78470018  0.04145438    -0.07600
C1179       C  0.65157027  0.80060257  0.01559764     0.13300
C1180       C  0.67850499  0.81376855  0.01393435    -0.21100
C1181       C  0.69346707  0.81139548  0.03702162    -0.07600
C1182       C  0.68103585  0.79416758  0.06170835     0.13300
C1183       C  0.69635464  0.79077795  0.08682503    -0.24400
H1184       H  0.64444385  0.76862778  0.08325960     0.14500
H1185       H  0.68808952  0.82661244  0.99468249     0.14600
C1186       C  0.63698147  0.80393600  0.98945879    -0.24400
H1187       H  0.68371505  0.77714348  0.10485358     0.04800
H1188       H  0.70913930  0.80957656  0.09791345     0.08000
H1189       H  0.70820446  0.78310475  0.07697187     0.08000
H1190       H  0.62778960  0.81495451  0.99738134     0.08000
H1191       H  0.62269706  0.78359979  0.48130891     0.08000
H1192       H  0.65036937  0.81322353  0.46960351     0.04800
C1193       C  0.58343403  0.78247539  0.16361572    -0.21000
C1194       C  0.56247783  0.76625130  0.14505453    -0.07600
C1195       C  0.53729141  0.75455777  0.15728811     0.13300
C1196       C  0.53365217  0.75913996  0.18792362    -0.21100
C1197       C  0.55452080  0.77514866  0.20666857    -0.07600
C1198       C  0.57975470  0.78701874  0.19445889     0.13300
C1199       C  0.60261704  0.80541734  0.21334661    -0.24400
H1200       H  0.60263162  0.79172855  0.15387695     0.14500
H1201       H  0.51432507  0.75050891  0.19722128     0.14600
C1202       C  0.51407284  0.73818045  0.13766056    -0.24400
H1203       H  0.62076204  0.81363062  0.19987892     0.04800
H1204       H  0.60464255  0.79528646  0.23362308     0.08000
H1205       H  0.60007160  0.82157439  0.22122419     0.08000
H1206       H  0.51466994  0.72102686  0.12965686     0.08000
H1207       H  0.51384746  0.74941574  0.11742344     0.08000
H1208       H  0.49583003  0.73140237  0.15057798     0.04800
C1209       C  0.58073963  0.80500138  0.44346200    -0.21000
C1210       C  0.55583234  0.79001380  0.45555149    -0.07600
C1211       C  0.53437594  0.78520137  0.43726645     0.13300
C1212       C  0.53840918  0.79510799  0.40733350    -0.21100
C1213       C  0.56309771  0.80870457  0.39468890    -0.07600
C1214       C  0.58461063  0.81398417  0.41288026     0.13300
C1215       C  0.61147849  0.82909556  0.40010178    -0.24400
H1216       H  0.59710367  0.80875744  0.45751590     0.14500
H1217       H  0.52201591  0.79085840  0.39296863     0.14600
C1218       C  0.50709186  0.76943377  0.44883252    -0.24400
H1219       H  0.62611785  0.83205080  0.41768647     0.04800
H1220       H  0.61520186  0.84825006  0.39213409     0.08000
H1221       H  0.61380250  0.81869120  0.38042549     0.08000
H1222       H  0.50470304  0.77746770  0.47070932     0.08000
H1223       H  0.50216831  0.74919153  0.45250890     0.08000
H1224       H  0.49303974  0.76922608  0.43206017     0.04800
C1225       C  0.53678802  0.67613839  0.42862458    -0.21000
C1226       C  0.52057433  0.65037792  0.43719295    -0.07600
C1227       C  0.51863697  0.64310027  0.46848733     0.13300
C1228       C  0.53091823  0.66226396  0.49075348    -0.21100
C1229       C  0.54439421  0.68828535  0.48231690    -0.07600
C1230       C  0.54833390  0.69532038  0.45098044     0.13300
C1231       C  0.56311179  0.72316642  0.44129125    -0.24400
H1232       H  0.53843454  0.68157586  0.40454174     0.14500
H1233       H  0.52529246  0.65698296  0.01509862     0.14600
C1234       C  0.50309335  0.61537918  0.47855927    -0.24400
H1235       H  0.56457930  0.72530149  0.41584272     0.04800
H1236       H  0.58286265  0.73231290  0.45085983     0.08000
H1237       H  0.55336568  0.73346550  0.44991118     0.08000
H1238       H  0.50994355  0.60373678  0.46629512     0.08000
H1239       H  0.48245469  0.60769147  0.47353751     0.08000
H1240       H  0.50486072  0.61317391  0.50369370     0.04800
C1241       C  0.48854788  0.68844680  0.35654089    -0.21000
C1242       C  0.48433062  0.66996329  0.33401210    -0.07600
C1243       C  0.48740269  0.67723603  0.30261702     0.13300
C1244       C  0.49562829  0.70301222  0.29470813    -0.21100
C1245       C  0.50154534  0.72174679  0.31744852    -0.07600
C1246       C  0.49752730  0.71425755  0.34870674     0.13300
C1247       C  0.50310472  0.73354522  0.37389076    -0.24400
H1248       H  0.48618576  0.68297262  0.38065225     0.14500
H1249       H  0.49889506  0.70888108  0.27073350     0.14600
C1250       C  0.48205353  0.65798263  0.27747829    -0.24400
H1251       H  0.49798698  0.72429064  0.39697579     0.04800
H1252       H  0.49182763  0.74334680  0.37000650     0.08000
H1253       H  0.52389444  0.74802283  0.37410806     0.08000
H1254       H  0.46210219  0.64161058  0.27975678     0.08000
H1255       H  0.49577074  0.65074731  0.27891741     0.08000
H1256       H  0.48412059  0.66664243  0.25427427     0.04800
C1257       C  0.50713882  0.53214575  0.39395141    -0.21000
C1258       C  0.51958313  0.55490183  0.37669786    -0.07600
C1259       C  0.54451109  0.56321958  0.36515792     0.13300
C1260       C  0.55584759  0.54782479  0.37007883    -0.21100
C1261       C  0.54274091  0.52419550  0.38604528    -0.07600
C1262       C  0.51812296  0.51667423  0.39878921     0.13300
C1263       C  0.50281060  0.49238449  0.41748988    -0.24400
H1264       H  0.48814203  0.52604033  0.40316358     0.14500
H1265       H  0.57469671  0.55390193  0.36049975     0.14600
C1266       C  0.55863157  0.58757196  0.34650604    -0.24400
H1267       H  0.48499243  0.49088102  0.42718491     0.04800
H1268       H  0.51445016  0.49211270  0.43712198     0.08000
H1269       H  0.49679093  0.47523991  0.40278716     0.08000
H1270       H  0.56198374  0.60427666  0.36074156     0.08000
H1271       H  0.54710747  0.58642694  0.32596766     0.08000
H1272       H  0.57759950  0.59086691  0.33846953     0.04800
C1273       C  0.66179597  0.53958530  0.32154430    -0.21000
C1274       C  0.63671381  0.52161298  0.31229035    -0.07600
C1275       C  0.63119564  0.51692662  0.28052090     0.13300
C1276       C  0.65138301  0.52851627  0.25918831    -0.21100
C1277       C  0.67691782  0.54361808  0.26893327    -0.07600
C1278       C  0.68209186  0.55030402  0.30026409     0.13300
C1279       C  0.70891646  0.56852058  0.31132431    -0.24400
H1280       H  0.66596635  0.54359608  0.34583244     0.14500
H1281       H  0.64745482  0.52390454  0.23496618     0.14600
C1282       C  0.60429240  0.49947158  0.26888245    -0.24400
H1283       H  0.70930674  0.57239866  0.33635860     0.04800
H1284       H  0.71654821  0.58709563  0.29886046     0.08000
H1285       H  0.72160802  0.56033545  0.30728082     0.08000
H1286       H  0.59132267  0.50612702  0.27776455     0.08000
H1287       H  0.59719529  0.47931708  0.27619742     0.08000
H1288       H  0.60345754  0.49954093  0.24333848     0.04800
C1289       C  0.78984576  0.80567346  0.16125604    -0.21000
C1290       C  0.80468279  0.79424233  0.15469095    -0.07600
C1291       C  0.81021270  0.79148028  0.12379900     0.13300
C1292       C  0.80248644  0.80210268  0.10025447    -0.21100
C1293       C  0.79005624  0.81597366  0.10709735    -0.07600
C1294       C  0.78267304  0.81689864  0.13776962     0.13300
C1295       C  0.76804399  0.83043517  0.14591926    -0.24400
H1296       H  0.78595322  0.80795371  0.18506902     0.14500
H1297       H  0.80810531  0.80138238  0.07670412     0.14600
C1298       C  0.82558069  0.77882293  0.11520958    -0.24400
H1299       H  0.76283379  0.82820041  0.17072597     0.04800
H1300       H  0.75002851  0.82223910  0.13232222     0.08000
H1301       H  0.77984659  0.85132756  0.14104782     0.08000
H1302       H  0.82994751  0.77028912  0.13536347     0.08000
H1303       H  0.84398184  0.79316549  0.10427421     0.08000
H1304       H  0.81449583  0.76307246  0.09862220     0.04800
C1305       C  0.79457326  0.68841128  0.18518018    -0.21000
C1306       C  0.79637471  0.69755916  0.21525036    -0.07600
C1307       C  0.78236865  0.67991402  0.23912793     0.13300
C1308       C  0.76802869  0.65339289  0.23248405    -0.21100
C1309       C  0.76759973  0.64426581  0.20264319    -0.07600
C1310       C  0.78039463  0.66207301  0.17862834     0.13300
C1311       C  0.77933135  0.65323423  0.14602856    -0.24400
H1312       H  0.80507522  0.70194625  0.16682650     0.14500
H1313       H  0.75849869  0.63964898  0.25095867     0.14600
C1314       C  0.78395223  0.68874757  0.27186902    -0.24400
H1315       H  0.78978383  0.66965487  0.12988403     0.04800
H1316       H  0.75895426  0.64218142  0.13860953     0.08000
H1317       H  0.78817924  0.64089712  0.14446958     0.08000
H1318       H  0.77622537  0.70206148  0.27343503     0.08000
H1319       H  0.80427299  0.69879092  0.27964559     0.08000
H1320       H  0.77264561  0.67235335  0.28777523     0.04800
C1321       C  0.83616425  0.86187595  0.22734619    -0.21000
C1322       C  0.84665940  0.85375251  0.25069262    -0.07600
C1323       C  0.84868447  0.86335261  0.28074028     0.13300
C1324       C  0.83917094  0.88010246  0.28704998    -0.21100
C1325       C  0.82682876  0.88665838  0.26415442    -0.07600
C1326       C  0.82605819  0.87802287  0.23367179     0.13300
C1327       C  0.81439788  0.88553562  0.20774184    -0.24400
H1328       H  0.83451133  0.85430083  0.20430553     0.14500
H1329       H  0.83969494  0.88657658  0.31043898     0.14600
C1330       C  0.85966008  0.85485338  0.30631581    -0.24400
H1331       H  0.81687010  0.87836788  0.18518724     0.04800
H1332       H  0.82388498  0.90680963  0.20627804     0.08000
H1333       H  0.79347095  0.87732387  0.21149811     0.08000
H1334       H  0.87969708  0.86005883  0.30054151     0.08000
H1335       H  0.84788640  0.83370251  0.30934061     0.08000
H1336       H  0.85985795  0.86405506  0.32852559     0.04800
C1337       C  0.86865327  0.84340351  0.96638085    -0.21000
C1338       C  0.87578789  0.82713438  0.49060737    -0.07600
C1339       C  0.87055674  0.83007894  0.52154133     0.13300
C1340       C  0.85551137  0.84137892  0.52794526    -0.21100
C1341       C  0.84443779  0.84860375  0.50422462    -0.07600
C1342       C  0.85203036  0.85279762  0.97370707     0.13300
C1343       C  0.84077709  0.86110410  0.94819661    -0.24400
H1344       H  0.87230224  0.84121658  0.94248532     0.14500
H1345       H  0.85108469  0.84317118  0.55170207     0.14600
C1346       C  0.88073800  0.82132055  0.54782812    -0.24400
H1347       H  0.84789866  0.85931567  0.92525844     0.04800
H1348       H  0.84634519  0.88155351  0.95145336     0.08000
H1349       H  0.81952238  0.84904045  0.94809487     0.08000
H1350       H  0.90198688  0.83075037  0.54612455     0.08000
H1351       H  0.87227432  0.80013889  0.54721703     0.08000
H1352       H  0.87589592  0.82629392  0.57051255     0.04800
C1353       C  0.91261929  0.79259244  0.08221906    -0.21000
C1354       C  0.89674497  0.76899190  0.06782175    -0.07600
C1355       C  0.87629131  0.74891693  0.08441592     0.13300
C1356       C  0.87218866  0.75311577  0.11519106    -0.21100
C1357       C  0.88751723  0.77713799  0.12908590    -0.07600
C1358       C  0.90805802  0.79708206  0.11247601     0.13300
C1359       C  0.92535100  0.82309585  0.12652665    -0.24400
H1360       H  0.92808632  0.80802947  0.06921550     0.14500
H1361       H  0.85644269  0.73792571  0.12813357     0.14600
C1362       C  0.85910147  0.72310793  0.06996471    -0.24400
H1363       H  0.94124115  0.83583506  0.11070734     0.04800
H1364       H  0.93401691  0.82089103  0.14804755     0.08000
H1365       H  0.91420887  0.83280570  0.13169359     0.08000
H1366       H  0.87086646  0.71484923  0.06150510     0.08000
H1367       H  0.84836667  0.72518502  0.05044571     0.08000
H1368       H  0.84480387  0.70933465  0.08668556     0.04800
C1369       C  0.87748678  0.75634928  0.36238449    -0.21000
C1370       C  0.87570023  0.77440091  0.38085235    -0.07600
C1371       C  0.86440967  0.78822532  0.36905925     0.13300
C1372       C  0.85562187  0.78414022  0.33862185    -0.21100
C1373       C  0.85834778  0.76688836  0.31925611    -0.07600
C1374       C  0.86912795  0.75241682  0.33166305     0.13300
C1375       C  0.87224445  0.73297995  0.31307934    -0.24400
H1376       H  0.88617020  0.74579692  0.37185813     0.14500
H1377       H  0.84743267  0.79530259  0.32966374     0.14600
C1378       C  0.86234622  0.80784246  0.38833638    -0.24400
H1379       H  0.87954412  0.72260697  0.32732452     0.04800
H1380       H  0.88636164  0.74275598  0.29424195     0.08000
H1381       H  0.85340196  0.71843785  0.30345680     0.08000
H1382       H  0.88186831  0.82299664  0.39541159     0.08000
H1383       H  0.85051606  0.79830329  0.40906062     0.08000
H1384       H  0.85320977  0.81722651  0.37557879     0.04800
C1385       C  0.70284032  0.49980726  0.39999892    -0.21000
C1386       C  0.71034646  0.50671961  0.43056294    -0.07600
C1387       C  0.69175053  0.50367795  0.45267017     0.13300
C1388       C  0.66609924  0.49422694  0.44351927    -0.21100
C1389       C  0.65850712  0.48768719  0.41273188    -0.07600
C1390       C  0.67720559  0.49016743  0.39075444     0.13300
C1391       C  0.67083940  0.48415238  0.35712635    -0.24400
H1392       H  0.71733223  0.50266670  0.38309667     0.14500
H1393       H  0.65205276  0.49268723  0.46032997     0.14600
C1394       C  0.69926576  0.51179739  0.48558829    -0.24400
H1395       H  0.68805868  0.48838574  0.34324756     0.04800
H1396       H  0.66295019  0.49594758  0.34768468     0.08000
H1397       H  0.65662894  0.46342821  0.35428220     0.08000
H1398       H  0.71359524  0.53264483  0.48641882     0.08000
H1399       H  0.70773016  0.50077225  0.49587915     0.08000
H1400       H  0.68248080  0.50836085  0.49984403     0.04800
C1401       C  0.86152264  0.65414309  0.43375350    -0.21000
C1402       C  0.84896466  0.63851653  0.45939191    -0.07600
C1403       C  0.85138043  0.65003562  0.48845671     0.13300
C1404       C  0.86616081  0.67693139  0.49106695    -0.21100
C1405       C  0.87778399  0.69251977  0.46517434    -0.07600
C1406       C  0.87549602  0.68106185  0.43621509     0.13300
C1407       C  0.88760995  0.69727514  0.40795765    -0.24400
H1408       H  0.85951666  0.64528150  0.41145397     0.14500
H1409       H  0.86787679  0.68593338  0.51320434     0.14600
C1410       C  0.83862659  0.63407844  0.51673693    -0.24400
H1411       H  0.88426221  0.68529922  0.38716495     0.04800
H1412       H  0.90866735  0.70940767  0.41139136     0.08000
H1413       H  0.87927901  0.70983030  0.40373649     0.08000
H1414       H  0.83080298  0.62619327  0.01882969     0.08000
H1415       H  0.81742161  0.62376948  0.51408914     0.08000
H1416       H  0.82718351  0.65325970  0.02841959     0.04800
C1417       C  0.81178388  0.44723609  0.41358597    -0.21000
C1418       C  0.83032412  0.45582616  0.39005312    -0.07600
C1419       C  0.83641314  0.47875874  0.37399600     0.13300
C1420       C  0.82611846  0.49385198  0.38399282    -0.21100
C1421       C  0.80958504  0.48669988  0.40940739    -0.07600
C1422       C  0.80140775  0.46252079  0.42362733     0.13300
C1423       C  0.78330360  0.45363176  0.45071748    -0.24400
H1424       H  0.80676808  0.42946024  0.42553078     0.14500
H1425       H  0.83217342  0.51216212  0.37284777     0.14600
C1426       C  0.85384659  0.48758638  0.34619295    -0.24400
H1427       H  0.77938738  0.43458560  0.45939506     0.04800
H1428       H  0.76470115  0.45186778  0.44382920     0.08000
H1429       H  0.79179470  0.46763678  0.46982720     0.08000
H1430       H  0.84629314  0.47198402  0.32892958     0.08000
H1431       H  0.87373218  0.49284899  0.35259812     0.08000
H1432       H  0.85480427  0.50476630  0.33518294     0.04800
C1433       C  0.79508577  0.59330338  0.34089799    -0.21000
C1434       C  0.80254248  0.57577641  0.35145642    -0.07600
C1435       C  0.80532318  0.55966939  0.32974447     0.13300
C1436       C  0.79833203  0.55990890  0.29914332    -0.21100
C1437       C  0.78901354  0.57588013  0.28932914    -0.07600
C1438       C  0.78862901  0.59378034  0.30986783     0.13300
C1439       C  0.78047117  0.61254745  0.29936987    -0.24400
H1440       H  0.79363185  0.60619681  0.35710233     0.14500
H1441       H  0.79895169  0.54655816  0.28287679     0.14600
C1442       C  0.81418071  0.54100216  0.33842164    -0.24400
H1443       H  0.78025415  0.62452755  0.31865523     0.04800
H1444       H  0.76094765  0.60209492  0.28930602     0.08000
H1445       H  0.79406266  0.62555812  0.28156264     0.08000
H1446       H  0.81458942  0.52980398  0.31834708     0.08000
H1447       H  0.80087286  0.52700295  0.35571203     0.08000
H1448       H  0.83402581  0.55163938  0.34769520     0.04800
C1449       C  0.75997617  0.57691479  0.04805543    -0.21000
C1450       C  0.76764443  0.55866723  0.04211213    -0.07600
C1451       C  0.76966289  0.54454397  0.06736788     0.13300
C1452       C  0.76505326  0.54986149  0.09715404    -0.21100
C1453       C  0.75830265  0.56857421  0.10314083    -0.07600
C1454       C  0.75513396  0.58193212  0.07827752     0.13300
C1455       C  0.74780165  0.60214854  0.08349509    -0.24400
H1456       H  0.75819977  0.58766627  0.02906891     0.14500
H1457       H  0.76680235  0.53917017  0.11628613     0.14600
C1458       C  0.77653400  0.52362686  0.06400341    -0.24400
H1459       H  0.74654856  0.61097343  0.06152896     0.04800
H1460       H  0.76258624  0.61757438  0.09796059     0.08000
H1461       H  0.72879423  0.59357371  0.09506364     0.08000
H1462       H  0.79635899  0.53176364  0.05487325     0.08000
H1463       H  0.76253963  0.50828199  0.04861606     0.08000
H1464       H  0.77602228  0.51432844  0.08635750     0.04800
C1465       C  0.17509734  0.53177866  0.06371969    -0.21000
C1466       C  0.17733102  0.51619294  0.08637185    -0.07600
C1467       C  0.17142334  0.51849667  0.11731063     0.13300
C1468       C  0.16219213  0.53531169  0.12439330    -0.21100
C1469       C  0.15784268  0.54901987  0.10116442    -0.07600
C1470       C  0.16474998  0.54755022  0.07053928     0.13300
C1471       C  0.16071040  0.56214759  0.04487200    -0.24400
H1472       H  0.17967711  0.53019317  0.03997215     0.14500
H1473       H  0.15682384  0.53654591  0.14789225     0.14600
C1474       C  0.17476389  0.50338433  0.14284353    -0.24400
H1475       H  0.16813572  0.55960470  0.02252151     0.04800
H1476       H  0.17087671  0.58299652  0.05026262     0.08000
H1477       H  0.13990477  0.55516357  0.04195291     0.08000
H1478       H  0.19492312  0.50744287  0.14313551     0.08000
H1479       H  0.16154039  0.48249295  0.13957396     0.08000
H1480       H  0.17046598  0.50857598  0.16571931     0.04800
C1481       C  0.12179781  0.58651162  0.00483347    -0.21000
C1482       C  0.09716499  0.57455211  0.01780492    -0.07600
C1483       C  0.07572168  0.55833143  0.99952814     0.13300
C1484       C  0.08510168  0.55583240  0.46698489    -0.21100
C1485       C  0.11001291  0.56571660  0.45509952    -0.07600
C1486       C  0.13138647  0.58187276  0.47366969     0.13300
C1487       C  0.15854738  0.59409597  0.46163682    -0.24400
H1488       H  0.13814275  0.59863820  0.01915977     0.14500
H1489       H  0.06883601  0.54387624  0.45256815     0.14600
C1490       C  0.04886400  0.54553634  0.01252090    -0.24400
H1491       H  0.17267521  0.60729174  0.47877254     0.04800
H1492       H  0.16046569  0.60541203  0.44056767     0.08000
H1493       H  0.16358894  0.57911870  0.45626365     0.08000
H1494       H  0.04463993  0.56035517  0.02137305     0.08000
H1495       H  0.04696923  0.53234982  0.03158922     0.08000
H1496       H  0.03427920  0.53408276  0.99481296     0.04800
C1497       C  0.07772223  0.53591387  0.25535528    -0.21000
C1498       C  0.09322705  0.52648984  0.26721036    -0.07600
C1499       C  0.11125206  0.52494087  0.24734090     0.13300
C1500       C  0.11384359  0.53377818  0.21686346    -0.21100
C1501       C  0.09918177  0.54423061  0.20586395    -0.07600
C1502       C  0.08053552  0.54481240  0.22491463     0.13300
C1503       C  0.06392732  0.55521684  0.21313025    -0.24400
H1504       H  0.06380713  0.53700595  0.27021050     0.14500
H1505       H  0.12824723  0.53367196  0.20190569     0.14600
C1506       C  0.12896047  0.51550655  0.25820505    -0.24400
H1507       H  0.05037936  0.55449334  0.23103451     0.04800
H1508       H  0.05253519  0.54365743  0.19314967     0.08000
H1509       H  0.07612609  0.57550156  0.20568920     0.08000
H1510       H  0.11754721  0.49509289  0.26556995     0.08000
H1511       H  0.14091831  0.52752934  0.27760107     0.08000
H1512       H  0.14223390  0.51655391  0.23971609     0.04800
C1513       C  0.82191922  0.37050273  0.13476026    -0.21000
C1514       C  0.83136576  0.38881414  0.15845799    -0.07600
C1515       C  0.83088409  0.38045659  0.18903869     0.13300
C1516       C  0.82192972  0.35427199  0.19493664    -0.21100
C1517       C  0.81407782  0.33619997  0.17099151    -0.07600
C1518       C  0.81356115  0.34437995  0.14060398     0.13300
C1519       C  0.80369441  0.32558335  0.11446865    -0.24400
H1520       H  0.82239039  0.37690892  0.11127773     0.14500
H1521       H  0.82225937  0.34807056  0.21832710     0.14600
C1522       C  0.83969716  0.39903583  0.21553863    -0.24400
H1523       H  0.80425886  0.33508351  0.09226644     0.04800
H1524       H  0.78343894  0.31100151  0.11937827     0.08000
H1525       H  0.81540247  0.31612912  0.11183106     0.08000
H1526       H  0.82783230  0.40841161  0.21649488     0.08000
H1527       H  0.86025215  0.41384654  0.21278850     0.08000
H1528       H  0.83755096  0.38916663  0.23793342     0.04800
C1529       C  0.87038269  0.54757454  0.06505314    -0.21000
C1530       C  0.87286679  0.52582029  0.06002055    -0.07600
C1531       C  0.86925932  0.51545259  0.03010194     0.13300
C1532       C  0.86118693  0.52567232  0.00653753    -0.21100
C1533       C  0.85603282  0.54555799  0.01231166    -0.07600
C1534       C  0.86171986  0.55747776  0.04140864     0.13300
C1535       C  0.85692809  0.57932542  0.04797331    -0.24400
H1536       H  0.87309815  0.55541755  0.08807418     0.14500
H1537       H  0.86021214  0.51799312  0.48435639     0.14600
C1538       C  0.87210832  0.49244139  0.02334485    -0.24400
H1539       H  0.86196718  0.58617651  0.07205027     0.04800
H1540       H  0.83633854  0.57307135  0.04432605     0.08000
H1541       H  0.86879878  0.59566562  0.03225419     0.08000
H1542       H  0.85656559  0.47536242  0.03511778     0.08000
H1543       H  0.89114287  0.49593980  0.03133142     0.08000
H1544       H  0.87051891  0.48810804  0.99833402     0.04800
C1545       C  0.91985664  0.48031115  0.24585685    -0.21000
C1546       C  0.89865469  0.47861346  0.23011702    -0.07600
C1547       C  0.87488440  0.46883870  0.24547846     0.13300
C1548       C  0.87284436  0.46098988  0.27610844    -0.21100
C1549       C  0.89385622  0.46250130  0.29218849    -0.07600
C1550       C  0.91782645  0.47253823  0.27689183     0.13300
C1551       C  0.94084356  0.47385344  0.29244861    -0.24400
H1552       H  0.93787084  0.48723851  0.23361278     0.14500
H1553       H  0.85426376  0.45279376  0.28726448     0.14600
C1554       C  0.85107431  0.46508255  0.22915261    -0.24400
H1555       H  0.95763967  0.48127910  0.27667918     0.04800
H1556       H  0.93615523  0.45435746  0.30021384     0.08000
H1557       H  0.94651877  0.48692984  0.31253729     0.08000
H1558       H  0.84760284  0.45334180  0.20814402     0.08000
H1559       H  0.85351819  0.48393201  0.22248406     0.08000
H1560       H  0.83368922  0.45524875  0.24396382     0.04800
C1561       C  0.85887679  0.42735657  0.02377674    -0.21000
C1562       C  0.87980410  0.43713711  0.04415796    -0.07600
C1563       C  0.90431309  0.44297734  0.03275897     0.13300
C1564       C  0.90725298  0.43954721  0.00131800    -0.21100
C1565       C  0.88891478  0.43203192  0.48039144    -0.07600
C1566       C  0.86565418  0.42966432  0.49102284     0.13300
C1567       C  0.84405481  0.42455667  0.46925622    -0.24400
H1568       H  0.84006862  0.42269416  0.03230797     0.14500
H1569       H  0.92538319  0.43637406  0.49313226     0.14600
C1570       C  0.92776551  0.45416435  0.05296019    -0.24400
H1571       H  0.82673717  0.42192736  0.48168292     0.04800
H1572       H  0.83851234  0.40682403  0.45585260     0.08000
H1573       H  0.85024430  0.44106636  0.45328389     0.08000
H1574       H  0.92507487  0.44041072  0.07167371     0.08000
H1575       H  0.93114014  0.47261626  0.06279171     0.08000
H1576       H  0.94530015  0.45816433  0.03992419     0.04800
C1577       C  0.98118333  0.54871924  0.11940197    -0.21000
C1578       C  0.96816674  0.52181046  0.12302147    -0.07600
C1579       C  0.98278597  0.50920323  0.12391683     0.13300
C1580       C  0.00957862  0.52367449  0.12117157    -0.21100
C1581       C  0.02273065  0.55055190  0.11766370    -0.07600
C1582       C  0.00820765  0.56323413  0.11647916     0.13300
C1583       C  0.02092303  0.59198464  0.11290521    -0.24400
H1584       H  0.97012589  0.55847151  0.11885842     0.14500
H1585       H  0.02040423  0.51368315  0.12179787     0.14600
C1586       C  0.97069750  0.48058252  0.12904937    -0.24400
H1587       H  0.00673005  0.59867912  0.11374275     0.04800
H1588       H  0.03092653  0.59797276  0.09034638     0.08000
H1589       H  0.03494272  0.60157143  0.13179651     0.08000
H1590       H  0.95810266  0.47000066  0.10942398     0.08000
H1591       H  0.95943217  0.47495856  0.15079233     0.08000
H1592       H  0.98530641  0.47447708  0.13091645     0.04800
C1593       C  0.79400751  0.48344351  0.16455655    -0.21000
C1594       C  0.82043378  0.49736121  0.17174991    -0.07600
C1595       C  0.82951620  0.51986518  0.19005677     0.13300
C1596       C  0.81242417  0.52798146  0.19947584    -0.21100
C1597       C  0.78655239  0.51529950  0.19044291    -0.07600
C1598       C  0.77703752  0.49229066  0.17333300     0.13300
C1599       C  0.74947212  0.47774350  0.16296959    -0.24400
H1600       H  0.78684707  0.46632543  0.15055884     0.14500
H1601       H  0.81974577  0.54529453  0.21317438     0.14600
C1602       C  0.85736356  0.53636859  0.19931529    -0.24400
H1603       H  0.74543517  0.46065798  0.14904279     0.04800
H1604       H  0.74512165  0.49042519  0.14861240     0.08000
H1605       H  0.73653132  0.47095533  0.18332148     0.08000
H1606       H  0.86938985  0.54615107  0.17882957     0.08000
H1607       H  0.86439707  0.52461990  0.21083845     0.08000
H1608       H  0.86017455  0.55174267  0.21565694     0.04800
C1609       C  0.00495960  0.80435085  0.41341540    -0.21000
C1610       C  0.97897036  0.78931985  0.40551499    -0.07600
C1611       C  0.97201418  0.78365169  0.37432810     0.13300
C1612       C  0.99115240  0.79449933  0.35151880    -0.21100
C1613       C  0.01683481  0.81179885  0.35929892    -0.07600
C1614       C  0.02400853  0.81591397  0.39065684     0.13300
C1615       C  0.05152256  0.83314206  0.40023333    -0.24400
H1616       H  0.01009573  0.80890146  0.43743600     0.14500
H1617       H  0.98568592  0.79129546  0.32745839     0.14600
C1618       C  0.94423859  0.76779347  0.36509797    -0.24400
H1619       H  0.05386992  0.83303635  0.42558757     0.04800
H1620       H  0.05799240  0.85318520  0.39318812     0.08000
H1621       H  0.06397981  0.82662202  0.38932072     0.08000
H1622       H  0.93361928  0.77753612  0.37256303     0.08000
H1623       H  0.93558425  0.74854728  0.37614503     0.08000
H1624       H  0.94203289  0.76511739  0.33977148     0.04800
C1625       C  0.98322495  0.82088139  0.23286276    -0.21000
C1626       C  0.99602614  0.84261401  0.25186039    -0.07600
C1627       C  0.98247461  0.85530010  0.26125628     0.13300
C1628       C  0.95652597  0.84516300  0.25265294    -0.21100
C1629       C  0.94351362  0.82238204  0.23574026    -0.07600
C1630       C  0.95726162  0.81049727  0.22502494     0.13300
C1631       C  0.94468642  0.78679481  0.20510001    -0.24400
H1632       H  0.99322014  0.81110799  0.22507710     0.14500
H1633       H  0.94599688  0.85444231  0.26029051     0.14600
C1634       C  0.99476646  0.87921779  0.28072633    -0.24400
H1635       H  0.95863789  0.78097855  0.19729283     0.04800
H1636       H  0.93630305  0.79054855  0.18433441     0.08000
H1637       H  0.92934005  0.77039557  0.21817708     0.08000
H1638       H  0.01249958  0.89430315  0.26930005     0.08000
H1639       H  0.99939077  0.87477128  0.30386473     0.08000
H1640       H  0.98176558  0.88716002  0.28417975     0.04800
C1641       C  0.11504944  0.76993805  0.29431618    -0.21000
C1642       C  0.14164418  0.78388559  0.29992223    -0.07600
C1643       C  0.15368881  0.81081615  0.30432008     0.13300
C1644       C  0.13913064  0.82301620  0.30212326    -0.21100
C1645       C  0.11284481  0.80950474  0.29485897    -0.07600
C1646       C  0.10050892  0.78242834  0.29136595     0.13300
C1647       C  0.07240338  0.76669620  0.28353150    -0.24400
H1648       H  0.10578799  0.74930136  0.29126160     0.14500
H1649       H  0.14867891  0.84363659  0.30552966     0.14600
C1650       C  0.18192407  0.82711407  0.31173364    -0.24400
H1651       H  0.06619074  0.74601069  0.28084319     0.04800
H1652       H  0.06857717  0.77360217  0.26150792     0.08000
H1653       H  0.06068312  0.76831286  0.30220634     0.08000
H1654       H  0.19372461  0.82767108  0.29178397     0.08000
H1655       H  0.18667214  0.81921502  0.33216369     0.08000
H1656       H  0.18740572  0.84730989  0.31696152     0.04800
C1657       C  0.16705414  0.63228602  0.36739530    -0.21000
C1658       C  0.16031810  0.61386790  0.34410873    -0.07600
C1659       C  0.16468636  0.62192861  0.31301498     0.13300
C1660       C  0.17497002  0.64815803  0.30595604    -0.21100
C1661       C  0.17971083  0.66622077  0.32915424    -0.07600
C1662       C  0.17604212  0.65826731  0.36022455     0.13300
C1663       C  0.18044175  0.67695719  0.38565139    -0.24400
H1664       H  0.16332315  0.62599650  0.39118282     0.14500
H1665       H  0.17746963  0.65429137  0.28207783     0.14600
C1666       C  0.15789728  0.60281731  0.28729869    -0.24400
H1667       H  0.17712981  0.66777521  0.40871853     0.04800
H1668       H  0.16695625  0.68437361  0.38291119     0.08000
H1669       H  0.20052510  0.69323334  0.38466637     0.08000
H1670       H  0.13689762  0.58904918  0.28722424     0.08000
H1671       H  0.16831785  0.59205570  0.29042253     0.08000
H1672       H  0.16318081  0.61244179  0.26443017     0.04800
C1673       C  0.10965948  0.64059649  0.21465025    -0.21000
C1674       C  0.11571541  0.64970656  0.18430579    -0.07600
C1675       C  0.12899994  0.67644649  0.17860112     0.13300
C1676       C  0.13799386  0.69349444  0.20353963    -0.21100
C1677       C  0.13394421  0.68427108  0.23387818    -0.07600
C1678       C  0.11865843  0.65764975  0.23960116     0.13300
C1679       C  0.11358869  0.64718223  0.27198594    -0.24400
H1680       H  0.09984371  0.62007726  0.21892149     0.14500
H1681       H  0.15005017  0.71395333  0.19933557     0.14600
C1682       C  0.13538746  0.68690839  0.14625887    -0.24400
H1683       H  0.10142951  0.62589506  0.27240891     0.04800
H1684       H  0.10352415  0.65539026  0.28507934     0.08000
H1685       H  0.13199398  0.65243067  0.28358223     0.08000
H1686       H  0.11738383  0.68003056  0.13291145     0.08000
H1687       H  0.14750943  0.68025052  0.13492700     0.08000
H1688       H  0.14604698  0.70826793  0.14585302     0.04800
C1689       C  0.19326977  0.68588465  0.10963310    -0.21000
C1690       C  0.17921936  0.66686910  0.08763828    -0.07600
C1691       C  0.18286443  0.67344302  0.05610900     0.13300
C1692       C  0.19938220  0.69912809  0.04733357    -0.21100
C1693       C  0.21183015  0.71847417  0.06937680    -0.07600
C1694       C  0.20915099  0.71176376  0.10087598     0.13300
C1695       C  0.22179550  0.73209821  0.12522844    -0.24400
H1696       H  0.19021677  0.68082071  0.13386214     0.14500
H1697       H  0.20148668  0.70436380  0.02322880     0.14600
C1698       C  0.16888469  0.65345663  0.03180259    -0.24400
H1699       H  0.21772840  0.72364390  0.14875248     0.04800
H1700       H  0.21454151  0.74581474  0.12384665     0.08000
H1701       H  0.24293446  0.74270897  0.12168019     0.08000
H1702       H  0.14781047  0.64482344  0.03478519     0.08000
H1703       H  0.17414961  0.63824618  0.03384964     0.08000
H1704       H  0.17399218  0.66175213  0.00823023     0.04800
C1705       C  0.37225920  0.82898003  0.06964178    -0.21000
C1706       C  0.38064635  0.84000098  0.09864857    -0.07600
C1707       C  0.36304696  0.84133920  0.11900222     0.13300
C1708       C  0.33758936  0.83231938  0.10948073    -0.21100
C1709       C  0.32908445  0.82196500  0.07996539    -0.07600
C1710       C  0.34678897  0.81991365  0.05994324     0.13300
C1711       C  0.33977200  0.80972774  0.02759116    -0.24400
H1712       H  0.38608683  0.82856178  0.05395892     0.14500
H1713       H  0.32460200  0.83435749  0.12485373     0.14600
C1714       C  0.37147966  0.85341630  0.15032145    -0.24400
H1715       H  0.35628226  0.81045028  0.01516268     0.04800
H1716       H  0.33357663  0.82147874  0.01424892     0.08000
H1717       H  0.32414514  0.78933269  0.02817052     0.08000
H1718       H  0.38668894  0.87386691  0.14779272     0.08000
H1719       H  0.37916443  0.84300610  0.16378444     0.08000
H1720       H  0.35532762  0.85276936  0.16352146     0.04800
C1721       C  0.24466726  0.79291337  0.19529260    -0.21000
C1722       C  0.22135829  0.78659134  0.20940739    -0.07600
C1723       C  0.20240408  0.78892466  0.19295424     0.13300
C1724       C  0.20702980  0.79691586  0.16205540    -0.21100
C1725       C  0.23035075  0.80297028  0.14779329    -0.07600
C1726       C  0.24952555  0.80134721  0.16474006     0.13300
C1727       C  0.27458918  0.80717870  0.15023015    -0.24400
H1728       H  0.25869543  0.79021525  0.20777633     0.14500
H1729       H  0.19222600  0.79780167  0.14876213     0.14600
C1730       C  0.17709333  0.78214271  0.20774562    -0.24400
H1731       H  0.28712117  0.80424842  0.16656883     0.04800
H1732       H  0.28499343  0.82759152  0.14277283     0.08000
H1733       H  0.27094768  0.79442508  0.13014799     0.08000
H1734       H  0.18051119  0.79470888  0.22795795     0.08000
H1735       H  0.16708667  0.76175957  0.21545953     0.08000
H1736       H  0.16428034  0.78475220  0.19153932     0.04800
C1737       C  0.18840321  0.74250331  0.41850118    -0.21000
C1738       C  0.19096040  0.76263443  0.39947732    -0.07600
C1739       C  0.19925618  0.78712402  0.41281533     0.13300
C1740       C  0.20594216  0.79092087  0.44408333    -0.21100
C1741       C  0.20493963  0.77119086  0.46228210    -0.07600
C1742       C  0.19558151  0.74653899  0.44955246     0.13300
C1743       C  0.19332171  0.72447777  0.46854742    -0.24400
H1744       H  0.18183671  0.72370258  0.40876654     0.14500
H1745       H  0.21343137  0.80985051  0.45394216     0.14600
C1746       C  0.20117264  0.80945214  0.39467302    -0.24400
H1747       H  0.18431701  0.70619878  0.45541096     0.04800
H1748       H  0.18129347  0.72169122  0.48920893     0.08000
H1749       H  0.21270252  0.72854451  0.47571974     0.08000
H1750       H  0.18233611  0.80373752  0.38388378     0.08000
H1751       H  0.21639223  0.81573736  0.37684251     0.08000
H1752       H  0.20627648  0.82635021  0.40953289     0.04800
C1753       C  0.03070588  0.85802350  0.04541175    -0.21000
C1754       C  0.04532756  0.88233933  0.03167820    -0.07600
C1755       C  0.03278584  0.89141381  0.01204484     0.13300
C1756       C  0.00721328  0.87429816  0.00273435    -0.21100
C1757       C  0.99371230  0.84874635  0.01366564    -0.07600
C1758       C  0.00509287  0.84133199  0.03715778     0.13300
C1759       C  0.99057190  0.81582198  0.05372488    -0.24400
H1760       H  0.03978755  0.85155802  0.06197395     0.14500
H1761       H  0.99557054  0.87566607  0.48413361     0.14600
C1762       C  0.04629623  0.91870223  0.00044991    -0.24400
H1763       H  0.00151924  0.81479484  0.07375056     0.04800
H1764       H  0.98724984  0.79533084  0.53478411     0.08000
H1765       H  0.97203673  0.81312745  0.06252541     0.08000
H1766       H  0.06080484  0.91962497  0.48633258     0.08000
H1767       H  0.05173922  0.93204278  0.02025874     0.08000
H1768       H  0.03382336  0.92243328  0.98493975     0.04800
C1769       C  0.22307095  0.88204921  0.05683795    -0.21000
C1770       C  0.21302802  0.85780543  0.04287064    -0.07600
C1771       C  0.19073200  0.84863760  0.02447348     0.13300
C1772       C  0.17863566  0.86329116  0.02151666    -0.21100
C1773       C  0.18761190  0.88684486  0.03682891    -0.07600
C1774       C  0.21051369  0.89659345  0.05432775     0.13300
C1775       C  0.21733576  0.91940539  0.57881866    -0.24400
H1776       H  0.24018266  0.88911856  0.07086950     0.14500
H1777       H  0.16151979  0.85586466  0.00742208     0.14600
C1778       C  0.17959794  0.82350357  0.00736143    -0.24400
H1779       H  0.23377765  0.92315254  0.59387355     0.04800
H1780       H  0.20671454  0.92077698  0.08790302     0.08000
H1781       H  0.22339065  0.93662484  0.56406064     0.08000
H1782       H  0.17205612  0.80714305  0.02378494     0.08000
H1783       H  0.19464018  0.82350307  0.99259528     0.08000
H1784       H  0.16338215  0.82037983  0.99225468     0.04800
C1785       C  0.14512746  0.89969357  0.42055973    -0.21000
C1786       C  0.12871048  0.90283262  0.44081521    -0.07600
C1787       C  0.10722701  0.90352809  0.42908886     0.13300
C1788       C  0.10228118  0.90054928  0.39763324    -0.21100
C1789       C  0.11746164  0.89563202  0.37721847    -0.07600
C1790       C  0.13956215  0.89565465  0.38881423     0.13300
C1791       C  0.15738428  0.89163577  0.36817867    -0.24400
H1792       H  0.16180612  0.89952884  0.42976761     0.14500
H1793       H  0.08555187  0.90103930  0.38925255     0.14600
C1794       C  0.08936197  0.90756680  0.44965271    -0.24400
H1795       H  0.17420751  0.89347154  0.38100182     0.04800
H1796       H  0.16468925  0.90626017  0.34947628     0.08000
H1797       H  0.14710216  0.87205421  0.35814150     0.08000
H1798       H  0.10054407  0.92535614  0.46332131     0.08000
H1799       H  0.07894935  0.89087470  0.46537884     0.08000
H1800       H  0.07467743  0.90952282  0.43627561     0.04800
C1801       C  0.08032634  0.86853260  0.14080022    -0.21000
C1802       C  0.10397430  0.87509137  0.12724642    -0.07600
C1803       C  0.12284078  0.87308935  0.14446504     0.13300
C1804       C  0.11824337  0.86650070  0.17580417    -0.21100
C1805       C  0.09491842  0.86100037  0.18961929    -0.07600
C1806       C  0.07546586  0.86130615  0.17174647     0.13300
C1807       C  0.05015506  0.85558565  0.18560635    -0.24400
H1808       H  0.06591166  0.86997769  0.12730614     0.14500
H1809       H  0.13304339  0.86618258  0.18974299     0.14600
C1810       C  0.14810898  0.87894643  0.13026518    -0.24400
H1811       H  0.03755548  0.85762089  0.16848677     0.04800
H1812       H  0.05354077  0.86913228  0.20472851     0.08000
H1813       H  0.03981196  0.83550697  0.19431104     0.08000
H1814       H  0.15793474  0.89857449  0.12021775     0.08000
H1815       H  0.14465912  0.86489625  0.11174639     0.08000
H1816       H  0.16114522  0.87774714  0.14746186     0.04800
C1817       C  0.51899578  0.17407554  0.19625313    -0.21000
C1818       C  0.50871379  0.18236407  0.17271536    -0.07600
C1819       C  0.51641618  0.18228678  0.14196130     0.13300
C1820       C  0.53349445  0.17324650  0.13550489    -0.21100
C1821       C  0.54246181  0.16350022  0.15884189    -0.07600
C1822       C  0.53534569  0.16421842  0.18970572     0.13300
C1823       C  0.54482289  0.15453098  0.21581114    -0.24400
H1824       H  0.51302981  0.17396304  0.21984906     0.14500
H1825       H  0.53883079  0.17253189  0.11183455     0.14600
C1826       C  0.50704566  0.19198232  0.11591821    -0.24400
H1827       H  0.53822271  0.15750437  0.23852231     0.04800
H1828       H  0.56615031  0.16501525  0.21583903     0.08000
H1829       H  0.53750935  0.13361927  0.21339047     0.08000
H1830       H  0.51358266  0.21259041  0.11969298     0.08000
H1831       H  0.48577151  0.18072748  0.11446868     0.08000
H1832       H  0.51487119  0.19036742  0.09339421     0.04800
C1833       C  0.19880236  0.00849451  0.09857371    -0.21000
C1834       C  0.18610163  0.98265206  0.10796661    -0.07600
C1835       C  0.18523941  0.97649025  0.13948285     0.13300
C1836       C  0.19499517  0.99634184  0.16109638    -0.21100
C1837       C  0.20474751  0.02198730  0.15191724    -0.07600
C1838       C  0.20781449  0.02834788  0.12022839     0.13300
C1839       C  0.21994474  0.05581707  0.10907512    -0.24400
H1840       H  0.19959438  0.01309457  0.07428638     0.14500
H1841       H  0.19301474  0.99157343  0.18541737     0.14600
C1842       C  0.17379365  0.94908953  0.15045622    -0.24400
H1843       H  0.22230073  0.05716300  0.08364995     0.04800
H1844       H  0.23925595  0.06741315  0.11953544     0.08000
H1845       H  0.20779342  0.06423533  0.11517138     0.08000
H1846       H  0.18416260  0.94028629  0.13939332     0.08000
H1847       H  0.15304975  0.93781412  0.14479893     0.08000
H1848       H  0.17558524  0.94796284  0.17578717     0.04800
C1849       C  0.31135281  0.10624647  0.19520063    -0.21000
C1850       C  0.30196424  0.11150316  0.22224821    -0.07600
C1851       C  0.31966635  0.12822489  0.24439523     0.13300
C1852       C  0.34613443  0.14035303  0.23822598    -0.21100
C1853       C  0.35546459  0.13631081  0.21049122    -0.07600
C1854       C  0.33797394  0.11875601  0.18891251     0.13300
C1855       C  0.34737036  0.11433963  0.15867891    -0.24400
H1856       H  0.29780571  0.09348131  0.17821223     0.14500
H1857       H  0.35966454  0.15396174  0.25463292     0.14600
C1858       C  0.31076054  0.13341526  0.27461945    -0.24400
H1859       H  0.33123619  0.10028258  0.14419671     0.04800
H1860       H  0.36059416  0.10677815  0.16293376     0.08000
H1861       H  0.35779749  0.13273632  0.14570319     0.08000
H1862       H  0.29828769  0.11497910  0.28680663     0.08000
H1863       H  0.29989649  0.14360866  0.27066678     0.08000
H1864       H  0.32719155  0.14565803  0.28990935     0.04800
C1865       C  0.14981916  0.99279309  0.28215162    -0.21000
C1866       C  0.14796929  0.00139018  0.25265078    -0.07600
C1867       C  0.12793010  0.98384740  0.23287890     0.13300
C1868       C  0.11171639  0.95815534  0.24253012    -0.21100
C1869       C  0.11510538  0.94946268  0.27114271    -0.07600
C1870       C  0.13377312  0.96724566  0.29159405     0.13300
C1871       C  0.13713747  0.95922455  0.32343348    -0.24400
H1872       H  0.16472793  0.00579905  0.29759442     0.14500
H1873       H  0.09741356  0.94439743  0.22691753     0.14600
C1874       C  0.12427614  0.99133902  0.20091626    -0.24400
H1875       H  0.15169588  0.97580058  0.33694177     0.04800
H1876       H  0.14363110  0.94492311  0.32201094     0.08000
H1877       H  0.11861587  0.95071193  0.33614315     0.08000
H1878       H  0.14184216  0.99727523  0.18689406     0.08000
H1879       H  0.12006959  0.00732530  0.20220103     0.08000
H1880       H  0.10796291  0.97512459  0.18882670     0.04800
C1881       C  0.46925010  0.84272030  0.37024918    -0.21000
C1882       C  0.44804395  0.83816415  0.35223742    -0.07600
C1883       C  0.44239811  0.82294178  0.32550452     0.13300
C1884       C  0.45927952  0.81420988  0.31634824    -0.21100
C1885       C  0.48163631  0.82057015  0.33328787    -0.07600
C1886       C  0.48601954  0.83409350  0.36126308     0.13300
C1887       C  0.50853440  0.83979381  0.38168686    -0.24400
H1888       H  0.47344652  0.85424820  0.39085141     0.14500
H1889       H  0.45593765  0.80388832  0.29487011     0.14600
C1890       C  0.41960832  0.81728232  0.30572611    -0.24400
H1891       H  0.50797890  0.84902470  0.40356443     0.04800
H1892       H  0.52690374  0.85309028  0.37000738     0.08000
H1893       H  0.50809292  0.82160834  0.38756966     0.08000
H1894       H  0.42095903  0.83549029  0.29780571     0.08000
H1895       H  0.40163182  0.80611762  0.31922136     0.08000
H1896       H  0.41849156  0.80589663  0.28509750     0.04800
C1897       C  0.42699796  0.90483219  0.21408616    -0.21000
C1898       C  0.43860203  0.88994424  0.20781651    -0.07600
C1899       C  0.44699456  0.88068301  0.23284461     0.13300
C1900       C  0.44327578  0.88634034  0.26278950    -0.21100
C1901       C  0.43101584  0.90045037  0.26910057    -0.07600
C1902       C  0.42294960  0.91008874  0.24444278     0.13300
C1903       C  0.41076985  0.92640578  0.24982007    -0.24400
H1904       H  0.42085664  0.91226945  0.19516239     0.14500
H1905       H  0.44962007  0.87905400  0.28167378     0.14600
C1906       C  0.46008222  0.86492162  0.22898909    -0.24400
H1907       H  0.40728777  0.93368614  0.22786280     0.04800
H1908       H  0.42363252  0.94325650  0.26419146     0.08000
H1909       H  0.39193685  0.91492712  0.26152239     0.08000
H1910       H  0.47787329  0.87583498  0.21517061     0.08000
H1911       H  0.44684652  0.84633888  0.21776362     0.08000
H1912       H  0.46577535  0.86024182  0.25136042     0.04800
C1913       C  0.46040998  0.92027275  0.47011386    -0.21000
C1914       C  0.45109344  0.89587946  0.45682274    -0.07600
C1915       C  0.45196379  0.87616526  0.47391205     0.13300
C1916       C  0.46609550  0.88627446  0.00076476    -0.21100
C1917       C  0.46773014  0.90705901  0.01724542    -0.07600
C1918       C  0.46950040  0.92511185  0.50048339     0.13300
C1919       C  0.46582045  0.94851647  0.01819448    -0.24400
H1920       H  0.45983941  0.93538560  0.45704097     0.14500
H1921       H  0.46994488  0.87254222  0.01238191     0.14600
C1922       C  0.44284277  0.84959236  0.46125548    -0.24400
H1923       H  0.47860407  0.96496516  0.49697752     0.04800
H1924       H  0.48542033  0.95967876  0.02808251     0.08000
H1925       H  0.45128381  0.94268234  0.03679632     0.08000
H1926       H  0.45281148  0.85098326  0.43924588     0.08000
H1927       H  0.42173664  0.83940251  0.45768374     0.08000
H1928       H  0.46417277  0.84900583  0.96860125     0.04800
C1929       C  0.33382275  0.87366257  0.48601233    -0.21000
C1930       C  0.30806516  0.85735108  0.47771740    -0.07600
C1931       C  0.30125354  0.85335042  0.44626332     0.13300
C1932       C  0.32076502  0.86359903  0.42400536    -0.21100
C1933       C  0.34669759  0.87631049  0.43269494    -0.07600
C1934       C  0.35340257  0.88250719  0.46388584     0.13300
C1935       C  0.38109259  0.89756980  0.47400226    -0.24400
H1936       H  0.33891285  0.87714166  0.51016662     0.14500
H1937       H  0.31579721  0.85936720  0.39990135     0.14600
C1938       C  0.27363726  0.83769897  0.43607873    -0.24400
H1939       H  0.38270347  0.90174411  0.49905012     0.04800
H1940       H  0.39106161  0.91616639  0.46138608     0.08000
H1941       H  0.39103526  0.88655369  0.46945775     0.08000
H1942       H  0.26219627  0.84564999  0.44642154     0.08000
H1943       H  0.26539413  0.81730698  0.44310613     0.08000
H1944       H  0.27184337  0.83803653  0.41065267     0.04800
C1945       C  0.32217949  0.81886481  0.30227296    -0.21000
C1946       C  0.32928123  0.81988540  0.33325831    -0.07600
C1947       C  0.31063599  0.80238097  0.35460407     0.13300
C1948       C  0.28537205  0.78578748  0.34468638    -0.21100
C1949       C  0.27815638  0.78564645  0.31408522    -0.07600
C1950       C  0.29689862  0.80190551  0.29246269     0.13300
C1951       C  0.28984745  0.80254635  0.25942263    -0.24400
H1952       H  0.33623351  0.83203046  0.28584678     0.14500
H1953       H  0.27079400  0.77348582  0.36120787     0.14600
C1954       C  0.31647530  0.80177808  0.38829760    -0.24400
H1955       H  0.30663858  0.81648953  0.24553265     0.04800
H1956       H  0.27495124  0.80829091  0.25823964     0.08000
H1957       H  0.28230324  0.78319676  0.24914757     0.08000
H1958       H  0.32319395  0.82090252  0.39874802     0.08000
H1959       H  0.33139153  0.79617604  0.39096481     0.08000
H1960       H  0.29928284  0.78761884  0.40145651     0.04800
C1961       C  0.62381493  0.18356652  0.41191220    -0.21000
C1962       C  0.61251119  0.16221434  0.39221090    -0.07600
C1963       C  0.62826570  0.15320929  0.37932021     0.13300
C1964       C  0.65370686  0.16370773  0.38914374    -0.21100
C1965       C  0.66434477  0.18319302  0.41130429    -0.07600
C1966       C  0.64961419  0.19422128  0.42162794     0.13300
C1967       C  0.66038720  0.21616941  0.44408029    -0.24400
H1968       H  0.61202219  0.19091739  0.42120990     0.14500
H1969       H  0.66501106  0.15556864  0.38054592     0.14600
C1970       C  0.61859275  0.13235213  0.35522952    -0.24400
H1971       H  0.64620972  0.22225914  0.44979437     0.04800
H1972       H  0.67756487  0.23297017  0.43391682     0.08000
H1973       H  0.66578783  0.21030489  0.46580574     0.08000
H1974       H  0.60972343  0.13734160  0.33604238     0.08000
H1975       H  0.60445238  0.11349830  0.36529429     0.08000
H1976       H  0.63439660  0.13006557  0.34538565     0.04800
C1977       C  0.44719902  0.01622566  0.36611126    -0.21000
C1978       C  0.46857436  0.02662018  0.38601259    -0.07600
C1979       C  0.47445160  0.00943631  0.40178870     0.13300
C1980       C  0.46028103  0.98305011  0.39556152    -0.21100
C1981       C  0.44012051  0.97283650  0.37423591    -0.07600
C1982       C  0.43289716  0.98949856  0.36003552     0.13300
C1983       C  0.41101022  0.97934675  0.33748209    -0.24400
H1984       H  0.44234491  0.02913157  0.35427107     0.14500
H1985       H  0.46543810  0.97019405  0.40701831     0.14600
C1986       C  0.49555187  0.01846898  0.42553986    -0.24400
H1987       H  0.40830537  0.99498520  0.32786308     0.04800
H1988       H  0.39289166  0.96530341  0.34917456     0.08000
H1989       H  0.41486682  0.96973485  0.31809453     0.08000
H1990       H  0.49298226  0.03039218  0.44310727     0.08000
H1991       H  0.51466423  0.02967773  0.41439525     0.08000
H1992       H  0.49540157  0.00210268  0.43773028     0.04800
C1993       C  0.51564611  0.08676520  0.50467565    -0.21000
C1994       C  0.53138120  0.10489361  0.48260833    -0.07600
C1995       C  0.54863580  0.12600812  0.99230835     0.13300
C1996       C  0.55485068  0.13087004  0.02338670    -0.21100
C1997       C  0.54102788  0.11236446  0.04614864    -0.07600
C1998       C  0.51878412  0.08906269  0.03745492     0.13300
C1999       C  0.50270428  0.06846469  0.06059303    -0.24400
H2000       H  0.49857227  0.06946588  0.49713841     0.14500
H2001       H  0.57146985  0.14901386  0.02977089     0.14600
C2002       C  0.57025637  0.14849490  0.46932531    -0.24400
H2003       H  0.48629276  0.05159408  0.04953720     0.04800
H2004       H  0.49471121  0.07618156  0.07784547     0.08000
H2005       H  0.51461220  0.06161767  0.07225488     0.08000
H2006       H  0.55855907  0.15442786  0.45546301     0.08000
H2007       H  0.57984587  0.14120287  0.45387049     0.08000
H2008       H  0.58005004  0.16417108  0.98007227     0.04800
C2009       C  0.57615509  0.12335291  0.28029945    -0.21000
C2010       C  0.55471509  0.10279470  0.29459583    -0.07600
C2011       C  0.53977569  0.07978287  0.27801538     0.13300
C2012       C  0.54628546  0.07838337  0.24723654    -0.21100
C2013       C  0.56756204  0.09920077  0.23298781    -0.07600
C2014       C  0.58287495  0.12185471  0.24992079     0.13300
C2015       C  0.60543573  0.14518742  0.23564808    -0.24400
H2016       H  0.58748897  0.14112111  0.29278138     0.14500
H2017       H  0.53442330  0.06116844  0.23399529     0.14600
C2018       C  0.51634276  0.05722276  0.29197395    -0.24400
H2019       H  0.61415983  0.16169946  0.25176570     0.04800
H2020       H  0.59909436  0.15129522  0.21486354     0.08000
H2021       H  0.62061270  0.14067641  0.22919180     0.08000
H2022       H  0.50251116  0.06325182  0.29957597     0.08000
H2023       H  0.52201786  0.04964517  0.31198409     0.08000
H2024       H  0.50638941  0.04129225  0.27525100     0.04800
C2025       C  0.45849247  0.13814147  0.32691141    -0.21000
C2026       C  0.47142005  0.12513657  0.31823384    -0.07600
C2027       C  0.47280531  0.11983673  0.28688789     0.13300
C2028       C  0.46354692  0.13007514  0.26466087    -0.21100
C2029       C  0.45376439  0.14604222  0.27319022    -0.07600
C2030       C  0.44988296  0.14902173  0.30467127     0.13300
C2031       C  0.43731654  0.16411157  0.31495351    -0.24400
H2032       H  0.45729775  0.14189193  0.35108625     0.14500
H2033       H  0.46600795  0.12741857  0.24047240     0.14600
C2034       C  0.48467713  0.10405915  0.27681919    -0.24400
H2035       H  0.43428430  0.16286934  0.34027303     0.04800
H2036       H  0.41827755  0.15638075  0.30371872     0.08000
H2037       H  0.44953861  0.18475171  0.30901480     0.08000
H2038       H  0.47472198  0.08502207  0.28846859     0.08000
H2039       H  0.50542331  0.11396666  0.28257847     0.08000
H2040       H  0.48298617  0.10079554  0.25156568     0.04800
C2041       C  0.49727112  0.20135401  0.45748753    -0.21000
C2042       C  0.49075539  0.21360154  0.43447832    -0.07600
C2043       C  0.49510166  0.21023525  0.40331714     0.13300
C2044       C  0.50487298  0.19397882  0.39589220    -0.21100
C2045       C  0.50953082  0.18010039  0.41869263    -0.07600
C2046       C  0.50620420  0.18431317  0.44998928     0.13300
C2047       C  0.51194809  0.17089479  0.47550907    -0.24400
H2048       H  0.49385614  0.20390617  0.48138284     0.14500
H2049       H  0.50735849  0.19085258  0.37187038     0.14600
C2050       C  0.48914156  0.22352171  0.37777579    -0.24400
H2051       H  0.50954332  0.17740339  0.49853875     0.04800
H2052       H  0.53210280  0.17509079  0.47348846     0.08000
H2053       H  0.49869677  0.14982744  0.47432802     0.08000
H2054       H  0.49990802  0.24463046  0.38150269     0.08000
H2055       H  0.46823756  0.21669372  0.37716982     0.08000
H2056       H  0.49465747  0.21960648  0.35487650     0.04800
C2057       C  0.50457598  0.33896556  0.39038268    -0.21000
C2058       C  0.50858439  0.33156174  0.41950240    -0.07600
C2059       C  0.52925173  0.34969130  0.43773215     0.13300
C2060       C  0.54463003  0.37512896  0.42685544    -0.21100
C2061       C  0.53948092  0.38282019  0.39846986    -0.07600
C2062       C  0.51977337  0.36425440  0.37963324     0.13300
C2063       C  0.51473090  0.37107297  0.34803967    -0.24400
H2064       H  0.48873829  0.32507938  0.37646634     0.14500
H2065       H  0.55954466  0.38943334  0.44141793     0.14600
C2066       C  0.53389821  0.34283693  0.46953661    -0.24400
H2067       H  0.49921266  0.35411909  0.33599985     0.04800
H2068       H  0.53254011  0.37850040  0.33411327     0.08000
H2069       H  0.50884808  0.38584282  0.34948195     0.08000
H2070       H  0.53809081  0.32684880  0.46816570     0.08000
H2071       H  0.51663269  0.33686398  0.48413213     0.08000
H2072       H  0.55044831  0.35938350  0.48087419     0.04800
C2073       C  0.44130436  0.25600583  0.33621298    -0.21000
C2074       C  0.42317309  0.23610572  0.35505480    -0.07600
C2075       C  0.40629559  0.21187547  0.34154790     0.13300
C2076       C  0.40917189  0.20786704  0.31029382    -0.21100
C2077       C  0.42869083  0.22715367  0.29234297    -0.07600
C2078       C  0.44442383  0.25180661  0.30514654     0.13300
C2079       C  0.46444351  0.27383896  0.28614602    -0.24400
H2080       H  0.45402092  0.27467978  0.34617387     0.14500
H2081       H  0.39696283  0.18910989  0.30021064     0.14600
C2082       C  0.38516700  0.19006279  0.35962791    -0.24400
H2083       H  0.47364385  0.29212802  0.29926445     0.04800
H2084       H  0.47987939  0.26991825  0.27905219     0.08000
H2085       H  0.45535347  0.27666023  0.26537166     0.08000
H2086       H  0.37288531  0.19668470  0.37078606     0.08000
H2087       H  0.39344270  0.18290004  0.37724381     0.08000
H2088       H  0.37265382  0.17351848  0.34463813     0.04800
C2089       C  0.45961327  0.22618004  0.06513076    -0.21000
C2090       C  0.43985655  0.21507953  0.04330892    -0.07600
C2091       C  0.41522584  0.19506612  0.05263588     0.13300
C2092       C  0.41091007  0.18747526  0.08382143    -0.21100
C2093       C  0.43047739  0.19972853  0.10561877    -0.07600
C2094       C  0.45520716  0.21888451  0.09606774     0.13300
C2095       C  0.47704580  0.23192524  0.11856649    -0.24400
H2096       H  0.47855713  0.24125609  0.05807559     0.14500
H2097       H  0.39205633  0.17259761  0.09140331     0.14600
C2098       C  0.39315791  0.18253801  0.03037422    -0.24400
H2099       H  0.49564397  0.24464260  0.10686228     0.04800
H2100       H  0.47892920  0.21735202  0.13214738     0.08000
H2101       H  0.47323674  0.24385282  0.13452062     0.08000
H2102       H  0.39776332  0.17276105  0.01189738     0.08000
H2103       H  0.38937860  0.19728172  0.02015584     0.08000
H2104       H  0.37522248  0.16786257  0.04187059     0.04800
C2105       C  0.15780096  0.03302156  0.47005642    -0.21000
C2106       C  0.16555083  0.05155966  0.49342717    -0.07600
C2107       C  0.16640796  0.04658433  0.02700106     0.13300
C2108       C  0.15629159  0.02030598  0.03361130    -0.21100
C2109       C  0.14662178  0.99911330  0.50813363    -0.07600
C2110       C  0.14878118  0.00692891  0.47700725     0.13300
C2111       C  0.14162149  0.98792096  0.45114116    -0.24400
H2112       H  0.16028240  0.03922445  0.44621131     0.14500
H2113       H  0.15436102  0.01415536  0.05744077     0.14600
C2114       C  0.17346422  0.06538400  0.05315716    -0.24400
H2115       H  0.14349288  0.99714001  0.42834323     0.04800
H2116       H  0.12135445  0.97236356  0.45395176     0.08000
H2117       H  0.15438266  0.97951596  0.45107489     0.08000
H2118       H  0.16287381  0.07604379  0.05083192     0.08000
H2119       H  0.19443684  0.07923139  0.05303985     0.08000
H2120       H  0.16851964  0.05549800  0.07587601     0.04800
C2121       C  0.31301291  0.17492930  0.45854366    -0.21000
C2122       C  0.30054048  0.18849827  0.46712892    -0.07600
C2123       C  0.31576964  0.21547943  0.47168145     0.13300
C2124       C  0.34271879  0.22778533  0.46758132    -0.21100
C2125       C  0.35497555  0.21383798  0.45984450    -0.07600
C2126       C  0.33970826  0.18698385  0.45507870     0.13300
C2127       C  0.35112633  0.17065185  0.44551421    -0.24400
H2128       H  0.30182435  0.15435984  0.45490629     0.14500
H2129       H  0.35436201  0.24835163  0.47104862     0.14600
C2130       C  0.30401757  0.23153559  0.48076398    -0.24400
H2131       H  0.33610567  0.15053595  0.44045148     0.04800
H2132       H  0.36318641  0.16980883  0.46429306     0.08000
H2133       H  0.36284887  0.17872342  0.42436942     0.08000
H2134       H  0.29463710  0.22527912  0.50364878     0.08000
H2135       H  0.28967206  0.22958179  0.46329111     0.08000
H2136       H  0.31870399  0.25224627  0.48244312     0.04800
C2137       C  0.10631994  0.15058384  0.50891415    -0.21000
C2138       C  0.12177952  0.17691732  0.02801263    -0.07600
C2139       C  0.14596824  0.18508904  0.04202425     0.13300
C2140       C  0.16083398  0.17446281  0.03245426    -0.21100
C2141       C  0.15259750  0.15592226  0.00919783    -0.07600
C2142       C  0.12157065  0.14010234  0.49887190     0.13300
C2143       C  0.11118237  0.11950342  0.47465631    -0.24400
H2144       H  0.08753112  0.14388013  0.49886241     0.14500
H2145       H  0.17992347  0.18202120  0.04192438     0.14600
C2146       C  0.15682143  0.20545483  0.06672995    -0.24400
H2147       H  0.09127117  0.11407955  0.46793889     0.04800
H2148       H  0.11087213  0.10203050  0.48365611     0.08000
H2149       H  0.12342198  0.12641207  0.45371367     0.08000
H2150       H  0.14257867  0.20052771  0.08543544     0.08000
H2151       H  0.16215291  0.22456584  0.05695712     0.08000
H2152       H  0.17448464  0.20717791  0.07718034     0.04800
C2153       C  0.25433040  0.14356216  0.08713664    -0.21000
C2154       C  0.23422924  0.14502441  0.07249205    -0.07600
C2155       C  0.21173319  0.13879186  0.08944360     0.13300
C2156       C  0.20976405  0.13097210  0.12019474    -0.21100
C2157       C  0.22947319  0.12881576  0.13471199    -0.07600
C2158       C  0.25233117  0.13570039  0.11813060     0.13300
C2159       C  0.27409571  0.13363597  0.13237682    -0.24400
H2160       H  0.27142771  0.14802036  0.07402120     0.14500
H2161       H  0.19223782  0.12574801  0.13282042     0.14600
C2162       C  0.18903265  0.13889584  0.07487200    -0.24400
H2163       H  0.29003856  0.13888879  0.11576119     0.04800
H2164       H  0.26713033  0.11360131  0.14023631     0.08000
H2165       H  0.28198625  0.14687137  0.15227606     0.08000
H2166       H  0.18246586  0.12613310  0.05443960     0.08000
H2167       H  0.19467992  0.15877369  0.06793114     0.08000
H2168       H  0.17252734  0.13208105  0.09100729     0.04800
C2169       C  0.21182178  0.08207061  0.37369492    -0.21000
C2170       C  0.22318902  0.10718886  0.38490297    -0.07600
C2171       C  0.23975157  0.12796273  0.36577576     0.13300
C2172       C  0.24293820  0.12333465  0.33489371    -0.21100
C2173       C  0.23022288  0.09831645  0.32284249    -0.07600
C2174       C  0.21513624  0.07733048  0.34283401     0.13300
C2175       C  0.20078890  0.05013520  0.33132515    -0.24400
H2176       H  0.19921883  0.06625295  0.38869399     0.14500
H2177       H  0.25488935  0.13939962  0.31985242     0.14600
C2178       C  0.25384042  0.15501641  0.37801724    -0.24400
H2179       H  0.18934535  0.03627933  0.34983540     0.04800
H2180       H  0.21446615  0.04444830  0.32218424     0.08000
H2181       H  0.18733081  0.04878420  0.31302075     0.08000
H2182       H  0.26645588  0.15616203  0.39734808     0.08000
H2183       H  0.23987434  0.16052827  0.38650491     0.08000
H2184       H  0.26600301  0.16908890  0.36006392     0.04800
C2185       C  0.44922113  0.62720013  0.06995999    -0.21000
C2186       C  0.45053734  0.61946575  0.10005487    -0.07600
C2187       C  0.46810614  0.63774844  0.12101480     0.13300
C2188       C  0.48477223  0.66308188  0.11102668    -0.21100
C2189       C  0.48394902  0.67078276  0.08072465    -0.07600
C2190       C  0.46560528  0.65270367  0.06008595     0.13300
C2191       C  0.46442352  0.65975793  0.02706651    -0.24400
H2192       H  0.43609875  0.61297448  0.05379218     0.14500
H2193       H  0.49921749  0.67663260  0.12662029     0.14600
C2194       C  0.47018049  0.63017776  0.15353411    -0.24400
H2195       H  0.44916878  0.64330607  0.01405459     0.04800
H2196       H  0.48304116  0.66571866  0.01550015     0.08000
H2197       H  0.46025345  0.67578039  0.02613117     0.08000
H2198       H  0.47568131  0.61508305  0.15334310     0.08000
H2199       H  0.45140122  0.62267286  0.16537511     0.08000
H2200       H  0.48485544  0.64674858  0.16694180     0.04800
C2201       C  0.29053374  0.51770683  0.08365622    -0.21000
C2202       C  0.28055029  0.49926564  0.06012314    -0.07600
C2203       C  0.29712497  0.49204723  0.04543656     0.13300
C2204       C  0.32233186  0.50197391  0.05601198    -0.21100
C2205       C  0.33156874  0.51846084  0.08132346    -0.07600
C2206       C  0.31574788  0.52707257  0.09483574     0.13300
C2207       C  0.32462822  0.54459063  0.12234445    -0.24400
H2208       H  0.27802473  0.52340387  0.09478331     0.14500
H2209       H  0.33458419  0.49566774  0.04543490     0.14600
C2210       C  0.28844838  0.47337817  0.01891787    -0.24400
H2211       H  0.30957116  0.54871505  0.13061537     0.04800
H2212       H  0.34187814  0.56316373  0.11615049     0.08000
H2213       H  0.32939638  0.53543802  0.14152947     0.08000
H2214       H  0.27995480  0.47965886  0.00067410     0.08000
H2215       H  0.27419017  0.45373576  0.02680548     0.08000
H2216       H  0.30469210  0.47217258  0.00848542     0.04800
C2217       C  0.44637236  0.53405987  0.47100560    -0.21000
C2218       C  0.43840898  0.55132701  0.46089127    -0.07600
C2219       C  0.42744756  0.56083511  0.48273041     0.13300
C2220       C  0.42100149  0.55281125  0.01361449    -0.21100
C2221       C  0.42658316  0.53392003  0.02273929    -0.07600
C2222       C  0.43567364  0.52285059  0.00138080     0.13300
C2223       C  0.44132065  0.50209384  0.01103903    -0.24400
H2224       H  0.45531945  0.52717629  0.45488940     0.14500
H2225       H  0.41399303  0.56100577  0.03068308     0.14600
C2226       C  0.42005581  0.58094121  0.47551074    -0.24400
H2227       H  0.44817645  0.49532560  0.99138423     0.04800
H2228       H  0.42360956  0.48541748  0.02045899     0.08000
H2229       H  0.45641613  0.50955402  0.02906546     0.08000
H2230       H  0.40486541  0.57379818  0.45771952     0.08000
H2231       H  0.43718222  0.59902804  0.46774177     0.08000
H2232       H  0.41229248  0.58588474  0.49595218     0.04800
C2233       C  0.44379406  0.57821060  0.26298517    -0.21000
C2234       C  0.46299235  0.57294566  0.27188502    -0.07600
C2235       C  0.47578520  0.56635201  0.24974428     0.13300
C2236       C  0.46778125  0.56359773  0.21891366    -0.21100
C2237       C  0.44735855  0.56737775  0.21014259    -0.07600
C2238       C  0.43582113  0.57570366  0.23245055     0.13300
C2239       C  0.41511777  0.58208662  0.22473615    -0.24400
H2240       H  0.43465657  0.58395231  0.28032106     0.14500
H2241       H  0.47675090  0.55742378  0.20191905     0.14600
C2242       C  0.49697768  0.56122354  0.25888036    -0.24400
H2243       H  0.41071192  0.59091012  0.24454100     0.04800
H2244       H  0.39695728  0.56439997  0.21871393     0.08000
H2245       H  0.42147769  0.59602890  0.20536384     0.08000
H2246       H  0.48962101  0.54531674  0.27599753     0.08000
H2247       H  0.51309410  0.57877735  0.26920175     0.08000
H2248       H  0.50455472  0.55569592  0.23877080     0.04800
C2249       C  0.61992933  0.45431139  0.18458483    -0.21000
C2250       C  0.61200562  0.45443160  0.15436371    -0.07600
C2251       C  0.63029215  0.47065454  0.13229622     0.13300
C2252       C  0.65572605  0.48765881  0.14142778    -0.21100
C2253       C  0.66354171  0.48875115  0.17212850    -0.07600
C2254       C  0.64551721  0.47087523  0.19373046     0.13300
C2255       C  0.65246192  0.46971820  0.22683477    -0.24400
H2256       H  0.60575436  0.44183785  0.20137478     0.14500
H2257       H  0.66932362  0.50093786  0.12470154     0.14600
C2258       C  0.62263649  0.47107795  0.09938621    -0.24400
H2259       H  0.63583651  0.45491452  0.24022753     0.04800
H2260       H  0.65901314  0.48846867  0.23819218     0.08000
H2261       H  0.66789173  0.46469935  0.22785570     0.08000
H2262       H  0.60793780  0.47707516  0.09846230     0.08000
H2263       H  0.61465809  0.45161953  0.08931901     0.08000
H2264       H  0.63924910  0.48472364  0.08504336     0.04800
C2265       C  0.52323462  0.45332446  0.24702342    -0.21000
C2266       C  0.52033303  0.43104573  0.23272923    -0.07600
C2267       C  0.52250512  0.41250407  0.25067338     0.13300
C2268       C  0.52852611  0.41723641  0.28186710    -0.21100
C2269       C  0.53213103  0.43967545  0.29610736    -0.07600
C2270       C  0.52875295  0.45770278  0.27870737     0.13300
C2271       C  0.53201319  0.48195584  0.29306431    -0.24400
H2272       H  0.52151353  0.46747461  0.23326786     0.14500
H2273       H  0.53144269  0.40363825  0.29504325     0.14600
C2274       C  0.52023171  0.38838255  0.23690816    -0.24400
H2275       H  0.52967560  0.49436085  0.27587317     0.04800
H2276       H  0.51732863  0.47698317  0.31134328     0.08000
H2277       H  0.55142829  0.49318648  0.30336200     0.08000
H2278       H  0.53425452  0.39353018  0.21778360     0.08000
H2279       H  0.50043423  0.37573061  0.22827086     0.08000
H2280       H  0.52422627  0.37706547  0.25405120     0.04800
C2281       C  0.56065237  0.47521704  0.03598061    -0.21000
C2282       C  0.56228361  0.45342305  0.04439988    -0.07600
C2283       C  0.56869676  0.44065054  0.02154532     0.13300
C2284       C  0.56995782  0.44761320  0.49134575    -0.21100
C2285       C  0.56511854  0.46720946  0.48276705    -0.07600
C2286       C  0.56061664  0.48118900  0.50548250     0.13300
C2287       C  0.55618545  0.50295878  0.49695931    -0.24400
H2288       H  0.55615344  0.48528200  0.05334468     0.14500
H2289       H  0.57428852  0.43763593  0.47363327     0.14600
C2290       C  0.57348227  0.41875195  0.02872941    -0.24400
H2291       H  0.55682811  0.51470614  0.01722096     0.04800
H2292       H  0.53930348  0.49579099  0.48153892     0.08000
H2293       H  0.57338641  0.51832249  0.48499051     0.08000
H2294       H  0.55539097  0.40123351  0.03550470     0.08000
H2295       H  0.58788660  0.42441292  0.04739236     0.08000
H2296       H  0.58109566  0.41346344  0.00843546     0.04800
C2297       C  0.45519453  0.33017861  0.07163100    -0.21000
C2298       C  0.47193230  0.35620410  0.06468743    -0.07600
C2299       C  0.47824346  0.36392844  0.03367673     0.13300
C2300       C  0.46960723  0.34516542  0.01057097    -0.21100
C2301       C  0.45497984  0.31896331  0.01795100    -0.07600
C2302       C  0.44688001  0.31136620  0.04854881     0.13300
C2303       C  0.43094999  0.28333419  0.05699443    -0.24400
H2304       H  0.45038534  0.32433777  0.09543621     0.14500
H2305       H  0.47586381  0.35081491  0.98697804     0.14600
C2306       C  0.49512300  0.39181755  0.02517302    -0.24400
H2307       H  0.42597199  0.28064124  0.08183828     0.04800
H2308       H  0.43486156  0.27063976  0.55439950     0.08000
H2309       H  0.41278404  0.27440019  0.04363792     0.08000
H2310       H  0.51418412  0.39944630  0.03602542     0.08000
H2311       H  0.48616736  0.40303127  0.03330627     0.08000
H2312       H  0.49805843  0.39457271  0.99988975     0.04800
C2313       C  0.45119451  0.44465941  0.13408971    -0.21000
C2314       C  0.47738119  0.45725899  0.12546854    -0.07600
C2315       C  0.48881529  0.48295372  0.11417881     0.13300
C2316       C  0.47424663  0.49529332  0.11318950    -0.21100
C2317       C  0.44846191  0.48286538  0.12240537    -0.07600
C2318       C  0.43658618  0.45707774  0.13246845     0.13300
C2319       C  0.40886540  0.44298001  0.14256415    -0.24400
H2320       H  0.44209947  0.42505790  0.14257865     0.14500
H2321       H  0.48306726  0.51496554  0.10491035     0.14600
C2322       C  0.51633596  0.49796160  0.10319225    -0.24400
H2323       H  0.40285581  0.42325348  0.15088026     0.04800
H2324       H  0.39629067  0.44130615  0.12295898     0.08000
H2325       H  0.40599100  0.45359734  0.16159178     0.08000
H2326       H  0.51936513  0.48766234  0.08392227     0.08000
H2327       H  0.52961957  0.50075398  0.12243855     0.08000
H2328       H  0.52143770  0.51737219  0.09453509     0.04800
C2329       C  0.50810262  0.29978973  0.19228370    -0.21000
C2330       C  0.48327821  0.28120974  0.18261305    -0.07600
C2331       C  0.46914389  0.28922215  0.16389500     0.13300
C2332       C  0.47982090  0.31513219  0.15631060    -0.21100
C2333       C  0.50390201  0.33397032  0.16710377    -0.07600
C2334       C  0.51848917  0.32619249  0.18518352     0.13300
C2335       C  0.54416914  0.34496796  0.19878482    -0.24400
H2336       H  0.51890628  0.29390685  0.20685105     0.14500
H2337       H  0.46882656  0.32086029  0.14191499     0.14600
C2338       C  0.44259862  0.27102199  0.15145159    -0.24400
H2339       H  0.55908562  0.34095353  0.18974837     0.04800
H2340       H  0.54322248  0.34271260  0.22421715     0.08000
H2341       H  0.55019989  0.36526398  0.19375109     0.08000
H2342       H  0.42836798  0.26268284  0.17039877     0.08000
H2343       H  0.44280404  0.25567848  0.13770709     0.08000
H2344       H  0.43557105  0.28094756  0.13604127     0.04800
C2345       C  0.21430919  0.50965620  0.33670047    -0.21000
C2346       C  0.20598889  0.48947403  0.31558782    -0.07600
C2347       C  0.18192080  0.48009847  0.30106646     0.13300
C2348       C  0.16629902  0.49044106  0.30880296    -0.21100
C2349       C  0.17385831  0.50981995  0.33102237    -0.07600
C2350       C  0.19841954  0.51979816  0.34490164     0.13300
C2351       C  0.20736931  0.53988716  0.36971972    -0.24400
H2352       H  0.23278110  0.51669119  0.34778402     0.14500
H2353       H  0.14756062  0.48265226  0.29816552     0.14600
C2354       C  0.17251688  0.45892678  0.27749636    -0.24400
H2355       H  0.22663599  0.54484032  0.37858702     0.04800
H2356       H  0.19368372  0.53260853  0.38937209     0.08000
H2357       H  0.20870623  0.55775244  0.36042765     0.08000
H2358       H  0.17037354  0.44114938  0.28817791     0.08000
H2359       H  0.18644746  0.46495935  0.25814325     0.08000
H2360       H  0.15355499  0.45429657  0.26789864     0.04800
C2361       C  0.24802359  0.45657299  0.40974221    -0.21000
C2362       C  0.23474813  0.43200459  0.39704548    -0.07600
C2363       C  0.21635830  0.41114621  0.41464401     0.13300
C2364       C  0.21138808  0.41562536  0.44485473    -0.21100
C2365       C  0.22385602  0.44057510  0.45725296    -0.07600
C2366       C  0.24253975  0.46142634  0.43925393     0.13300
C2367       C  0.25656183  0.48907566  0.44996454    -0.24400
H2368       H  0.26195642  0.47244949  0.39570929     0.14500
H2369       H  0.19719367  0.39967983  0.45850872     0.14600
C2370       C  0.20249641  0.38425556  0.40193301    -0.24400
H2371       H  0.27132595  0.50206826  0.43311519     0.04800
H2372       H  0.26659868  0.49092122  0.47197831     0.08000
H2373       H  0.24278411  0.49613911  0.45272567     0.08000
H2374       H  0.21673018  0.37858449  0.39495098     0.08000
H2375       H  0.19075983  0.38327616  0.38172609     0.08000
H2376       H  0.18940063  0.37011975  0.41926921     0.04800
C2377       C  0.22644783  0.46384319  0.18795525    -0.21000
C2378       C  0.21310821  0.44344195  0.20881887    -0.07600
C2379       C  0.19112835  0.42063554  0.19850088     0.13300
C2380       C  0.18419848  0.41845990  0.16722358    -0.21100
C2381       C  0.19880564  0.43836658  0.14636690    -0.07600
C2382       C  0.21966396  0.46157087  0.15699419     0.13300
C2383       C  0.23487571  0.48410388  0.13569940    -0.24400
H2384       H  0.24275686  0.48168571  0.19573593     0.14500
H2385       H  0.16782623  0.40094842  0.15883558     0.14600
C2386       C  0.17529407  0.39835437  0.21980450    -0.24400
H2387       H  0.24951690  0.50130688  0.14825154     0.04800
H2388       H  0.22181962  0.48936040  0.12373188     0.08000
H2389       H  0.24512198  0.47895554  0.11847791     0.08000
H2390       H  0.16675184  0.40447407  0.23826779     0.08000
H2391       H  0.18750706  0.39130218  0.23014985     0.08000
H2392       H  0.15927632  0.38202532  0.20749528     0.04800
C2393       C  0.34074305  0.47164694  0.24141677    -0.21000
C2394       C  0.31446517  0.45759388  0.23474134    -0.07600
C2395       C  0.30609740  0.45145931  0.20404813     0.13300
C2396       C  0.32428958  0.46156633  0.18028434    -0.21100
C2397       C  0.35030927  0.47799222  0.18691404    -0.07600
C2398       C  0.35888058  0.48220207  0.21767093     0.13300
C2399       C  0.38686152  0.49918161  0.22541535    -0.24400
H2400       H  0.34686716  0.47642121  0.26514241     0.14500
H2401       H  0.31797821  0.45851726  0.15650985     0.14600
C2402       C  0.27793056  0.43580962  0.19639897    -0.24400
H2403       H  0.39028475  0.49987630  0.25061151     0.04800
H2404       H  0.39345862  0.51903631  0.21742311     0.08000
H2405       H  0.39843414  0.49182235  0.21402194     0.08000
H2406       H  0.26782068  0.44594192  0.20427509     0.08000
H2407       H  0.26943939  0.41679790  0.20800918     0.08000
H2408       H  0.27474487  0.43257869  0.17123573     0.04800
C2409       C  0.33710935  0.51495522  0.36517682    -0.21000
C2410       C  0.32942806  0.51714286  0.33544344    -0.07600
C2411       C  0.34668742  0.53789505  0.31643227     0.13300
C2412       C  0.37178120  0.55499762  0.32701136    -0.21100
C2413       C  0.37996676  0.55162014  0.35600541    -0.07600
C2414       C  0.36203796  0.53198418  0.37575256     0.13300
C2415       C  0.36924703  0.52872991  0.40800913    -0.24400
H2416       H  0.32381785  0.49916806  0.37976499     0.14500
H2417       H  0.38557972  0.56980974  0.31175549     0.14600
C2418       C  0.33936242  0.54088709  0.28417303    -0.24400
H2419       H  0.35267370  0.51313135  0.42065906     0.04800
H2420       H  0.38477050  0.52385749  0.40764766     0.08000
H2421       H  0.37579827  0.54685693  0.42085567     0.08000
H2422       H  0.32239051  0.54357779  0.28483116     0.08000
H2423       H  0.33468861  0.52349692  0.27052646     0.08000
H2424       H  0.35522766  0.55777962  0.27225930     0.04800
C2425       C  0.03914431  0.16281709  0.24006570    -0.21000
C2426       C  0.04878794  0.17754140  0.26679719    -0.07600
C2427       C  0.03203570  0.18159588  0.28564802     0.13300
C2428       C  0.00631893  0.17175652  0.27680807    -0.21100
C2429       C  0.99653362  0.15788904  0.24931007    -0.07600
C2430       C  0.01330154  0.15296913  0.23096177     0.13300
C2431       C  0.00476050  0.13849785  0.20102760    -0.24400
H2432       H  0.05215667  0.15983012  0.22567475     0.14500
H2433       H  0.99414178  0.17601045  0.29100168     0.14600
C2434       C  0.04155682  0.19710121  0.31479182    -0.24400
H2435       H  0.02038616  0.13659291  0.18994682     0.04800
H2436       H  0.99895851  0.14888428  0.18462233     0.08000
H2437       H  0.98843617  0.11880121  0.20524957     0.08000
H2438       H  0.05689163  0.21697529  0.30915973     0.08000
H2439       H  0.04937572  0.18809420  0.33053006     0.08000
H2440       H  0.02598432  0.19828077  0.32711758     0.04800
C2441       C  0.20125884  0.32184943  0.26775043    -0.21000
C2442       C  0.19020430  0.30715229  0.29445602    -0.07600
C2443       C  0.19485087  0.31957051  0.32322540     0.13300
C2444       C  0.20971159  0.34653216  0.32439186    -0.21100
C2445       C  0.21949882  0.36124820  0.29744944    -0.07600
C2446       C  0.21560430  0.34880095  0.26886326     0.13300
C2447       C  0.22670873  0.36394193  0.23962688    -0.24400
H2448       H  0.19784339  0.31222268  0.24575033     0.14500
H2449       H  0.21280435  0.35624830  0.34625823     0.14600
C2450       C  0.18443897  0.30447955  0.35263928    -0.24400
H2451       H  0.22225168  0.35117256  0.21936889     0.04800
H2452       H  0.24792415  0.37576396  0.24175528     0.08000
H2453       H  0.21872105  0.37677253  0.23529329     0.08000
H2454       H  0.19138914  0.29057650  0.35524753     0.08000
H2455       H  0.16315341  0.29387418  0.35224877     0.08000
H2456       H  0.19069023  0.31720259  0.37311513     0.04800
C2457       C  0.14096931  0.13255757  0.26646748    -0.21000
C2458       C  0.14786235  0.15456163  0.24840260    -0.07600
C2459       C  0.16282336  0.15887589  0.22159021     0.13300
C2460       C  0.17227467  0.14233051  0.21491220    -0.21100
C2461       C  0.16725532  0.12164093  0.23436062    -0.07600
C2462       C  0.15070372  0.11607795  0.25984122     0.13300
C2463       C  0.14487441  0.09399193  0.28116275    -0.24400
H2464       H  0.12964106  0.12939740  0.28714542     0.14500
H2465       H  0.18465793  0.14621915  0.19504817     0.14600
C2466       C  0.16919422  0.18111551  0.20016640    -0.24400
H2467       H  0.13214978  0.09274611  0.30044617     0.04800
H2468       H  0.16301626  0.09648166  0.29107720     0.08000
H2469       H  0.13506278  0.07563638  0.26824558     0.08000
H2470       H  0.18153610  0.19967694  0.21187625     0.08000
H2471       H  0.15118401  0.18025687  0.19240845     0.08000
H2472       H  0.17973774  0.18061450  0.17941172     0.04800
C2473       C  0.17420910  0.20701661  0.38560496    -0.21000
C2474       C  0.18567081  0.20993635  0.35670570    -0.07600
C2475       C  0.20721128  0.20660154  0.35364812     0.13300
C2476       C  0.21554604  0.19836087  0.37932935    -0.21100
C2477       C  0.20233033  0.19294471  0.40748597    -0.07600
C2478       C  0.18217838  0.19843446  0.41101230     0.13300
C2479       C  0.16808419  0.19391830  0.44116795    -0.24400
H2480       H  0.15771542  0.20970445  0.38775478     0.14500
H2481       H  0.23097353  0.19414871  0.37670389     0.14600
C2482       C  0.22002335  0.20977925  0.32287585    -0.24400
H2483       H  0.15355115  0.20017148  0.44017425     0.04800
H2484       H  0.18193941  0.20485837  0.45973776     0.08000
H2485       H  0.15786293  0.17316365  0.44694496     0.08000
H2486       H  0.22758241  0.22974160  0.31436663     0.08000
H2487       H  0.20592209  0.19612875  0.30605253     0.08000
H2488       H  0.23630258  0.20601087  0.32436686     0.04800
C2489       C  0.12466250  0.21503791  0.17810689    -0.21000
C2490       C  0.13774587  0.23965689  0.19046083    -0.07600
C2491       C  0.14253451  0.26110293  0.17235507     0.13300
C2492       C  0.13410007  0.25719688  0.14160860    -0.21100
C2493       C  0.12019759  0.23223769  0.12923964    -0.07600
C2494       C  0.11521220  0.21075877  0.14819735     0.13300
C2495       C  0.09933895  0.18297798  0.13828775    -0.24400
H2496       H  0.12068455  0.19875573  0.19272720     0.14500
H2497       H  0.13777431  0.27362203  0.12751642     0.14600
C2498       C  0.15674042  0.28789711  0.18529619    -0.24400
H2499       H  0.09849163  0.16938283  0.15628210     0.04800
H2500       H  0.10768021  0.17938032  0.11745410     0.08000
H2501       H  0.07920770  0.17813613  0.13391710     0.08000
H2502       H  0.17602206  0.29220970  0.19335069     0.08000
H2503       H  0.14584821  0.28955671  0.20493905     0.08000
H2504       H  0.15936170  0.30254232  0.16778385     0.04800
C2505       C  0.10091919  0.20567216  0.40020917    -0.21000
C2506       C  0.10201120  0.22313188  0.37775742    -0.07600
C2507       C  0.09893521  0.24410622  0.38698620     0.13300
C2508       C  0.09601483  0.24746520  0.41840185    -0.21100
C2509       C  0.09639123  0.23069219  0.44054756    -0.07600
C2510       C  0.09823052  0.20918405  0.43135221     0.13300
C2511       C  0.09674735  0.18943778  0.45413874    -0.24400
H2512       H  0.10259692  0.18920312  0.39354464     0.14500
H2513       H  0.09387047  0.26350550  0.42583757     0.14600
C2514       C  0.09884985  0.26316027  0.36438263    -0.24400
H2515       H  0.09681633  0.17300291  0.44258271     0.04800
H2516       H  0.07876244  0.18168736  0.46785895     0.08000
H2517       H  0.11361595  0.19831415  0.46966476     0.08000
H2518       H  0.08283546  0.25307354  0.34781451     0.08000
H2519       H  0.11741263  0.27319610  0.35184794     0.08000
H2520       H  0.09614380  0.27807692  0.37601971     0.04800
O2521       O  0.11859634  0.20674547  0.84179284    -0.82500
C2522       C  0.14478999  0.24178352  0.72193072     0.96800
O2523       O  0.13623736  0.25178599  0.74071668    -0.71600
O2524       O  0.09349320  0.21522764  0.76433280    -0.75200
Al2525     Al  0.12421019  0.24151503  0.78230538     1.49000
C2526       C  0.07917318  0.19274786  0.77419684     0.92100
O2527       O  0.12335176  0.17233876  0.77205283    -0.81500
O2528       O  0.18374047  0.23256772  0.81076828    -0.75000
Al2529     Al  0.12171604  0.19154104  0.80604147     1.90100
O2530       O  0.16421321  0.19842105  0.76295453    -0.74100
O2531       O  0.18283307  0.26853560  0.77432540    -0.73900
O2532       O  0.15740606  0.23137032  0.73095571    -0.79600
O2533       O  0.15275715  0.27080885  0.79976198    -0.77800
O2534       O  0.13833132  0.22166070  0.78650777    -1.13900
O2535       O  0.10943013  0.23498285  0.82287377    -0.73100
C2536       C  0.11130212  0.22285927  0.84560172     0.97600
C2537       C  0.14442403  0.17648814  0.76071477     0.94000
Al2538     Al  0.16950935  0.23201596  0.77100900     1.55600
O2539       O  0.08769358  0.18255640  0.79267912    -0.77800
C2540       C  0.17531920  0.28142849  0.78944254     0.98200
C2541       C  0.17488675  0.21264434  0.82762379     0.93000
O2542       O  0.15204979  0.19428690  0.82438837    -0.83100
O2543       O  0.24535235  0.46625044  0.74335081    -0.82500
C2544       C  0.23810807  0.43343403  0.86400233     0.96800
O2545       O  0.21950602  0.42308646  0.84525535    -0.71600
O2546       O  0.21114746  0.45695493  0.81763662    -0.75200
Al2547     Al  0.21739950  0.43106306  0.80273437     1.49000
C2548       C  0.21999579  0.47982811  0.80890064     0.92100
O2549       O  0.28654168  0.50184866  0.81096000    -0.81500
O2550       O  0.28594921  0.44048085  0.77624476    -0.75000
Al2551     Al  0.26453233  0.48155426  0.77839724     1.90100
O2552       O  0.30132000  0.47617586  0.82190954    -0.74100
O2553       O  0.25005830  0.40556290  0.81436980    -0.73900
O2554       O  0.26121594  0.44412324  0.85505279    -0.79600
O2555       O  0.21774326  0.40169613  0.78765307    -0.77800
O2556       O  0.25139005  0.45177357  0.79881756    -1.13900
O2557       O  0.20908891  0.43529953  0.76157090    -0.73100
C2558       C  0.22257597  0.44867326  0.73925737     0.97600
C2559       C  0.30385311  0.49828993  0.82205717     0.94000
Al2560     Al  0.27269010  0.44232783  0.81548829     1.55600
O2561       O  0.24009206  0.49097487  0.79266648    -0.77800
C2562       C  0.22993811  0.39185898  0.79919908     0.98200
C2563       C  0.29545516  0.45899895  0.75719097     0.93000
O2564       O  0.29101764  0.47748919  0.75911806    -0.83100
O2565       O  0.54710996  0.41903236  0.58062467    -0.82500
C2566       C  0.51815971  0.42754031  0.69950296     0.96800
O2567       O  0.52966792  0.44667544  0.68142776    -0.71600
O2568       O  0.57159708  0.45110063  0.65757698    -0.75200
Al2569     Al  0.54179457  0.44874515  0.63962439     1.49000
C2570       C  0.58496346  0.44178591  0.64817622     0.92100
O2571       O  0.53640775  0.37717544  0.64984404    -0.81500
O2572       O  0.48021955  0.38338312  0.60831174    -0.75000
Al2573     Al  0.54105353  0.39957151  0.61598157     1.90100
O2574       O  0.49573220  0.36472268  0.65599647    -0.74100
O2575       O  0.48270888  0.42037776  0.64536699    -0.73900
O2576       O  0.50430430  0.40502994  0.68930443    -0.79600
O2577       O  0.51490237  0.45244040  0.62219417    -0.77800
O2578       O  0.52566160  0.41467094  0.63474953    -1.13900
O2579       O  0.55677569  0.45672595  0.59894011    -0.73100
C2580       C  0.55541043  0.44255617  0.57666374     0.97600
C2581       C  0.51411441  0.36023148  0.65800628     0.94000
Al2582     Al  0.49351575  0.39516507  0.64867962     1.55600
O2583       O  0.57537944  0.42248274  0.63068786    -0.77800
C2584       C  0.49202851  0.44156769  0.63132480     0.98200
C2585       C  0.48832992  0.37189525  0.59121680     0.93000
O2586       O  0.51020987  0.37405544  0.59562056    -0.83100
O2587       O  0.41322612  0.55252458  0.67289968    -0.82500
C2588       C  0.42632203  0.52684327  0.55483320     0.96800
O2589       O  0.44465709  0.53706050  0.57396754    -0.71600
O2590       O  0.44920854  0.57843364  0.59946758    -0.75200
Al2591     Al  0.44498049  0.54738892  0.61602799     1.49000
C2592       C  0.43881776  0.59132517  0.60678653     0.92100
O2593       O  0.37390607  0.54338270  0.60176194    -0.81500
O2594       O  0.37810505  0.48588815  0.64267061    -0.75000
Al2595     Al  0.39505538  0.54710024  0.63648159     1.90100
O2596       O  0.36171025  0.50303385  0.59417030    -0.74100
O2597       O  0.41593828  0.48873353  0.60661380    -0.73900
O2598       O  0.40322339  0.51285244  0.56324402    -0.79600
O2599       O  0.44714758  0.51925213  0.63255709    -0.77800
O2600       O  0.41070348  0.53186113  0.61855813    -1.13900
O2601       O  0.45107590  0.56034541  0.65723493    -0.73100
C2602       C  0.43623639  0.55937089  0.67847043     0.97600
C2603       C  0.35778174  0.52169803  0.59122552     0.94000
Al2604     Al  0.39148290  0.50032282  0.60303191     1.55600
O2605       O  0.41835732  0.58139332  0.62234354    -0.77800
C2606       C  0.43651504  0.49706926  0.62144012     0.98200
C2607       C  0.36653664  0.49400102  0.65967033     0.93000
O2608       O  0.36891171  0.51600154  0.65552211    -0.83100
O2609       O  0.20232592  0.12101347  0.91777715    -0.82500
C2610       C  0.23015775  0.14525512  0.53937054     0.96800
O2611       O  0.23829793  0.13417807  0.52172004    -0.71600
O2612       O  0.20621036  0.09646151  0.99840650    -0.75200
Al2613     Al  0.23409470  0.12574072  0.98015658     1.49000
C2614       C  0.18423688  0.08247269  0.98731816     0.92100
O2615       O  0.16709801  0.12932306  0.98497225    -0.81500
O2616       O  0.22920065  0.18674265  0.94528484    -0.75000
Al2617     Al  0.18645662  0.12558119  0.95237943     1.90100
O2618       O  0.19499530  0.16994161  0.99337711    -0.74100
O2619       O  0.26420196  0.18542981  0.98223222    -0.73900
O2620       O  0.22173660  0.15910680  0.52851825    -0.79600
O2621       O  0.26470086  0.15237614  0.96298146    -0.77800
O2622       O  0.21617182  0.14159602  0.97291901    -1.13900
O2623       O  0.22826038  0.11005872  0.94027104    -0.73100
C2624       C  0.21800478  0.11297873  0.91638261     0.97600
C2625       C  0.17238109  0.15106590  0.99537032     0.94000
Al2626     Al  0.22799027  0.17372753  0.98607330     1.55600
O2627       O  0.17553063  0.09129549  0.96721052    -0.77800
C2628       C  0.27640057  0.17582204  0.96977647     0.98200
C2629       C  0.20997707  0.17778144  0.92747688     0.93000
O2630       O  0.19079050  0.15567268  0.93191312    -0.83100
O2631       O  0.45697797  0.24740914  0.51134065    -0.82500
C2632       C  0.42883317  0.24360966  0.88725802     0.96800
O2633       O  0.42095059  0.22489257  0.90584922    -0.71600
O2634       O  0.45756150  0.22049289  0.93108413    -0.75200
Al2635     Al  0.42989818  0.22262574  0.94777900     1.49000
C2636       C  0.47946161  0.22855413  0.94238054     0.92100
O2637       O  0.49758238  0.29320924  0.94233237    -0.81500
O2638       O  0.43457131  0.28928686  0.97707376    -0.75000
Al2639     Al  0.47732266  0.27047610  0.97486356     1.90100
O2640       O  0.47015372  0.30589362  0.93045514    -0.74100
O2641       O  0.40011246  0.25198253  0.94060631    -0.73900
O2642       O  0.43835950  0.26631917  0.89707769    -0.79600
O2643       O  0.39951436  0.21955310  0.96379248    -0.77800
O2644       O  0.44806230  0.25653009  0.95338232    -1.13900
O2645       O  0.43510838  0.21346959  0.98850356    -0.73100
C2646       C  0.44122503  0.22369032  0.51298709     0.97600
C2647       C  0.49282737  0.30967765  0.93060658     0.94000
Al2648     Al  0.43671577  0.27659857  0.93764824     1.55600
O2649       O  0.48835936  0.24659789  0.96180020    -0.77800
C2650       C  0.38775637  0.23036912  0.95383169     0.98200
C2651       C  0.45354631  0.30037171  0.99504788     0.93000
O2652       O  0.47244939  0.29667015  0.99318043    -0.83100
O2653       O  0.51041102  0.13091405  0.83564230    -0.82500
C2654       C  0.52090689  0.09701595  0.95067675     0.96800
O2655       O  0.49936468  0.09309375  0.94094810    -0.71600
O2656       O  0.50283475  0.13644140  0.92215494    -0.75200
Al2657     Al  0.49119252  0.10387255  0.90278386     1.49000
C2658       C  0.51425429  0.15818762  0.90925552     0.92100
O2659       O  0.56870699  0.15558962  0.88751250    -0.81500
O2660       O  0.53477582  0.08686586  0.84641289    -0.75000
Al2661     Al  0.53816097  0.14147672  0.86268088     1.90100
O2662       O  0.57080514  0.12030892  0.88730750    -0.74100
O2663       O  0.50464332  0.06101336  0.89376348    -0.73900
O2664       O  0.53801578  0.09854737  0.93248026    -0.79600
O2665       O  0.47404836  0.06972471  0.88583398    -0.77800
O2666       O  0.52151345  0.11289312  0.88512287    -1.13900
O2667       O  0.47806175  0.11367530  0.86839478    -0.73100
C2668       C  0.48711375  0.12257620  0.84203908     0.97600
C2669       C  0.58172230  0.14442188  0.88995985     0.94000
Al2670     Al  0.53569879  0.09319208  0.88974441     1.55600
O2671       O  0.52748625  0.16154029  0.88540564    -0.77800
C2672       C  0.48141385  0.05352005  0.88825779     0.98200
C2673       C  0.54587635  0.10484503  0.82686571     0.93000
O2674       O  0.55174678  0.12758433  0.83374772    -0.83100
O2675       O  0.37988613  0.86790093  0.91561774    -0.82500
C2676       C  0.42506863  0.90377189  0.80004886     0.96800
O2677       O  0.40484471  0.90343694  0.80903055    -0.71600
O2678       O  0.36557621  0.86013962  0.82944406    -0.75200
Al2679     Al  0.38625889  0.89349814  0.84737502     1.49000
C2680       C  0.35570993  0.83884734  0.84339223     0.92100
O2681       O  0.41389237  0.84397710  0.86276281    -0.81500
O2682       O  0.44707345  0.91202779  0.90501420    -0.75000
Al2683     Al  0.39723289  0.85740658  0.88840639     1.90100
O2684       O  0.45087970  0.87994375  0.86245127    -0.74100
O2685       O  0.44246410  0.93817908  0.86032390    -0.73900
O2686       O  0.44062963  0.90341867  0.81923234    -0.79600
O2687       O  0.40232065  0.92823968  0.86229026    -0.77800
O2688       O  0.40839267  0.88589001  0.86571202    -1.13900
O2689       O  0.36404495  0.88437833  0.88261186    -0.73100
C2690       C  0.36485389  0.87625427  0.90931847     0.97600
C2691       C  0.43797698  0.85587283  0.85866690     0.94000
Al2692     Al  0.44226047  0.90664890  0.86190962     1.55600
O2693       O  0.36638718  0.83651898  0.86694216    -0.77800
C2694       C  0.42583877  0.94470029  0.86408529     0.98200
C2695       C  0.44102430  0.89405908  0.92409290     0.93000
O2696       O  0.42488986  0.87124177  0.91703638    -0.83100
O2697       O  0.19530190  0.05230288  0.67293807    -0.82500
C2698       C  0.22916957  0.09518682  0.78975679     0.96800
O2699       O  0.23193839  0.07715289  0.77874835    -0.71600
O2700       O  0.19053061  0.03669378  0.75763335    -0.75200
Al2701     Al  0.22291358  0.05973372  0.73958388     1.49000
C2702       C  0.16855940  0.02679790  0.74560943     0.92100
O2703       O  0.16943034  0.08379030  0.72654138    -0.81500
O2704       O  0.23846119  0.12109133  0.68649894    -0.75000
Al2705     Al  0.18434413  0.06866934  0.70095639     1.90100
O2706       O  0.20404759  0.12166409  0.72714796    -0.74100
O2707       O  0.26401341  0.11706144  0.73371880    -0.73900
O2708       O  0.22615576  0.11047140  0.77245463    -0.79600
O2709       O  0.25736817  0.07882538  0.72375940    -0.77800
O2710       O  0.21284891  0.08070903  0.72347379    -1.13900
O2711       O  0.21486446  0.03846027  0.70378557    -0.73100
C2712       C  0.20508003  0.03836383  0.67798063     0.97600
C2713       C  0.18001568  0.10783243  0.72957743     0.94000
Al2714     Al  0.23157003  0.11457854  0.72950805     1.55600
O2715       O  0.16473456  0.03764960  0.72315738    -0.77800
C2716       C  0.27265405  0.10243358  0.72772358     0.98200
C2717       C  0.22091625  0.11410748  0.66651447     0.93000
O2718       O  0.19808631  0.09688957  0.67267197    -0.83100
O2719       O  0.46117432  0.18652212  0.75397180    -0.82500
C2720       C  0.42324853  0.19079157  0.63833078     0.96800
O2721       O  0.42078883  0.17030294  0.64986876    -0.71600
O2722       O  0.46213018  0.17218800  0.66988399    -0.75200
Al2723     Al  0.43088094  0.16358602  0.68912384     1.49000
C2724       C  0.48447255  0.18310340  0.68054621     0.92100
O2725       O  0.48532313  0.24117594  0.69569877    -0.81500
O2726       O  0.41880453  0.21249580  0.74107749    -0.75000
Al2727     Al  0.47152488  0.21252883  0.72388185     1.90100
O2728       O  0.45061531  0.24447103  0.69547049    -0.74100
O2729       O  0.38971300  0.17997974  0.69884979    -0.73900
O2730       O  0.42512387  0.20883988  0.65491105    -0.79600
O2731       O  0.39727824  0.14856095  0.70623596    -0.77800
O2732       O  0.44168749  0.19519778  0.70356780    -1.13900
O2733       O  0.43994437  0.15198492  0.72524523    -0.73100
C2734       C  0.45054608  0.16253141  0.75032445     0.97600
C2735       C  0.47428624  0.25399516  0.69013223     0.94000
Al2736     Al  0.42263369  0.21006337  0.69798916     1.55600
O2737       O  0.49022726  0.19903895  0.70210881    -0.77800
C2738       C  0.38190579  0.15691805  0.70559377     0.98200
C2739       C  0.43744701  0.22409190  0.75935810     0.93000
O2740       O  0.45982589  0.22927130  0.75165506    -0.83100
O2741       O  0.14289273  0.94741055  0.59110311    -0.82500
C2742       C  0.13453452  0.90706205  0.97416789     0.96800
O2743       O  0.15603813  0.92414419  0.98464775    -0.71600
O2744       O  0.15450143  0.96469690  0.00552457    -0.75200
Al2745     Al  0.16272684  0.94058070  0.52379437     1.49000
C2746       C  0.14102163  0.97306928  0.51783282     0.92100
O2747       O  0.08507087  0.91632914  0.53772671    -0.81500
O2748       O  0.11773035  0.87940264  0.57692906    -0.75000
Al2749     Al  0.11543935  0.93142973  0.56317590     1.90100
O2750       O  0.08230312  0.87867547  0.53679731    -0.74100
O2751       O  0.14742000  0.88376363  0.52994192    -0.73900
O2752       O  0.11609333  0.89257120  0.99165508    -0.79600
O2753       O  0.17863862  0.92210812  0.54046486    -0.77800
O2754       O  0.13188290  0.91953805  0.54028891    -1.13900
O2755       O  0.17577025  0.96255994  0.55922946    -0.73100
C2756       C  0.16642087  0.96207774  0.58551255     0.97600
C2757       C  0.07172213  0.89223248  0.53452466     0.94000
Al2758     Al  0.11703275  0.88582416  0.53429154     1.55600
O2759       O  0.12725889  0.96294331  0.54132019    -0.77800
C2760       C  0.17061783  0.89849678  0.53672170     0.98200
C2761       C  0.10713916  0.88612013  0.59710887     0.93000
O2762       O  0.10087661  0.90290829  0.59119508    -0.83100
O2763       O  0.27692100  0.81726479  0.49751781    -0.82500
C2764       C  0.23556194  0.80898285  0.61521217     0.96800
O2765       O  0.25416109  0.82934196  0.60414172    -0.71600
O2766       O  0.29522807  0.82958536  0.58219380    -0.75200
Al2767     Al  0.27074779  0.83775727  0.56478234     1.49000
C2768       C  0.30604127  0.81878183  0.56913245     0.92100
O2769       O  0.24993051  0.76137891  0.55404837    -0.81500
O2770       O  0.20921492  0.78845370  0.51246668    -0.75000
Al2771     Al  0.26290321  0.79039134  0.52670774     1.90100
O2772       O  0.21108537  0.75603129  0.55676068    -0.74100
O2773       O  0.21231596  0.81975495  0.55596835    -0.73900
O2774       O  0.21988557  0.79095913  0.59821318    -0.79600
O2775       O  0.25074838  0.85260536  0.55017177    -0.77800
O2776       O  0.25011789  0.80634494  0.54919101    -1.13900
O2777       O  0.29078675  0.85087829  0.52806974    -0.73100
C2778       C  0.29028600  0.84116077  0.50209517     0.97600
C2779       C  0.22628683  0.74741491  0.56010314     0.94000
Al2780     Al  0.21613918  0.79027174  0.55537281     1.55600
O2781       O  0.29522579  0.80412855  0.54677099    -0.77800
C2782       C  0.22675239  0.84327866  0.55064876     0.98200
C2783       C  0.21427609  0.77648147  0.99231059     0.93000
O2784       O  0.23175752  0.77146778  0.99888955    -0.83100
O2785       O  0.20886069  0.75150671  0.74055983    -0.82500
C2786       C  0.18628097  0.75772789  0.86465743     0.96800
O2787       O  0.19772762  0.77630470  0.84616750    -0.71600
O2788       O  0.23793219  0.77829039  0.82117033    -0.75200
Al2789     Al  0.20902376  0.77860865  0.80466048     1.49000
C2790       C  0.25119223  0.77043008  0.80767794     0.92100
O2791       O  0.20350917  0.70724550  0.80595661    -0.81500
O2792       O  0.14481878  0.71324533  0.77450095    -0.75000
Al2793     Al  0.20594671  0.73070210  0.77452318     1.90100
O2794       O  0.16403410  0.69576333  0.82011075    -0.74100
O2795       O  0.14991445  0.75084072  0.81164461    -0.73900
O2796       O  0.17279552  0.73509760  0.85465565    -0.79600
O2797       O  0.18244323  0.78331611  0.78916525    -0.77800
O2798       O  0.19187843  0.74487187  0.79779521    -1.13900
O2799       O  0.22401607  0.78842396  0.76442522    -0.73100
C2800       C  0.21867492  0.77554190  0.73996371     0.97600
C2801       C  0.18254270  0.69142951  0.81882486     0.94000
Al2802     Al  0.16053551  0.72540063  0.81388211     1.55600
O2803       O  0.24133419  0.75361124  0.78681281    -0.77800
C2804       C  0.15971526  0.77267300  0.79888787     0.98200
C2805       C  0.15202420  0.70222096  0.75552295     0.93000
O2806       O  0.17439615  0.70532251  0.75661959    -0.83100
O2807       O  0.09110984  0.89412935  0.83817367    -0.82500
C2808       C  0.09132677  0.85904652  0.72451521     0.96800
O2809       O  0.10658881  0.87801835  0.74083062    -0.71600
O2810       O  0.11685104  0.91242571  0.78426564    -0.75200
Al2811     Al  0.11087335  0.87834913  0.78375923     1.49000
C2812       C  0.10252540  0.92186133  0.78080274     0.92100
O2813       O  0.03307689  0.86590912  0.78678117    -0.81500
O2814       O  0.03726049  0.81714361  0.81271280    -0.75000
Al2815     Al  0.06356812  0.87848965  0.80988681     1.90100
O2816       O  0.03189376  0.83596844  0.75777145    -0.74100
O2817       O  0.07812770  0.81692326  0.79207847    -0.73900
O2818       O  0.07375540  0.83818290  0.73623445    -0.79600
O2819       O  0.11523348  0.84964801  0.78130146    -0.77800
O2820       O  0.07683279  0.86200179  0.78972826    -1.13900
O2821       O  0.11715809  0.87956959  0.82695272    -0.73100
C2822       C  0.10882754  0.88968855  0.84588697     0.97600
C2823       C  0.02212638  0.84918751  0.76643140     0.94000
Al2824     Al  0.05711762  0.82991279  0.77586717     1.55600
O2825       O  0.07850456  0.90780558  0.78305251    -0.77800
C2826       C  0.10192577  0.82646423  0.78861902     0.98200
C2827       C  0.03578664  0.82794113  0.83689987     0.93000
O2828       O  0.04709687  0.85205244  0.83913106    -0.83100
O2829       O  0.86251261  0.45155962  0.57971052    -0.82500
C2830       C  0.90245161  0.48337106  0.69687289     0.96800
O2831       O  0.90909185  0.47084136  0.67941261    -0.71600
O2832       O  0.87184665  0.42921184  0.65579793    -0.75200
Al2833     Al  0.89932390  0.45894389  0.63791162     1.49000
C2834       C  0.84861938  0.41636797  0.64843284     0.92100
O2835       O  0.83378960  0.46679667  0.64893327    -0.81500
O2836       O  0.89539187  0.52026656  0.60371243    -0.75000
Al2837     Al  0.85043494  0.45988935  0.61514036     1.90100
O2838       O  0.86354514  0.50692983  0.65361604    -0.74100
O2839       O  0.93115034  0.51892642  0.63954145    -0.73900
O2840       O  0.89545392  0.49850707  0.68614211    -0.79600
O2841       O  0.93053433  0.48518242  0.62083269    -0.77800
O2842       O  0.88168766  0.47549877  0.63253156    -1.13900
O2843       O  0.89238472  0.44426475  0.59755211    -0.73100
C2844       C  0.87882400  0.44451759  0.57550204     0.97600
C2845       C  0.84072127  0.48931107  0.65816065     0.94000
Al2846     Al  0.89530744  0.50823234  0.64469029     1.55600
O2847       O  0.83851274  0.42616541  0.63192521    -0.77800
C2848       C  0.94277922  0.50851525  0.62776768     0.98200
C2849       C  0.87532596  0.51141191  0.58729256     0.93000
O2850       O  0.85577360  0.48980042  0.59312999    -0.83100
O2851       O  0.12454243  0.58256510  0.67460766    -0.82500
C2852       C  0.09999722  0.57893811  0.54954745     0.96800
O2853       O  0.09046791  0.55952685  0.56722526    -0.71600
O2854       O  0.12581727  0.55450272  0.59545145    -0.75200
Al2855     Al  0.09709638  0.55609393  0.60986376     1.49000
C2856       C  0.14702350  0.56229697  0.60860913     0.92100
O2857       O  0.16493069  0.62640612  0.60966229    -0.81500
O2858       O  0.10022300  0.62203951  0.63935277    -0.75000
Al2859     Al  0.14289878  0.60314077  0.64075934     1.90100
O2860       O  0.13855207  0.63990526  0.59576162    -0.74100
O2861       O  0.06784470  0.58574278  0.60033326    -0.73900
O2862       O  0.10890075  0.60134251  0.55998629    -0.79600
O2863       O  0.06569652  0.55254223  0.62331728    -0.77800
O2864       O  0.11492656  0.58983105  0.61694978    -1.13900
O2865       O  0.10016295  0.54592555  0.65105739    -0.73100
C2866       C  0.10910329  0.55876505  0.67544270     0.97600
C2867       C  0.16104012  0.64328151  0.59746829     0.94000
Al2868     Al  0.10466663  0.61043243  0.60020203     1.55600
O2869       O  0.15458705  0.57957608  0.62890918    -0.77800
C2870       C  0.05459380  0.56410300  0.61333188     0.98200
C2871       C  0.11793807  0.63221401  0.65913965     0.93000
O2872       O  0.13709345  0.62885902  0.65846831    -0.83100
O2873       O  0.77807009  0.53483450  0.50497196    -0.82500
C2874       C  0.80726611  0.57639797  0.88460533     0.96800
O2875       O  0.79513153  0.58285238  0.90313588    -0.71600
O2876       O  0.75446569  0.54530153  0.92872356    -0.75200
Al2877     Al  0.78429658  0.57309680  0.94551982     1.49000
C2878       C  0.74102218  0.52333291  0.94019638     0.92100
O2879       O  0.78785852  0.50681364  0.93550758    -0.81500
O2880       O  0.84665809  0.56855188  0.97437272    -0.75000
Al2881     Al  0.78578782  0.52535705  0.96983181     1.90100
O2882       O  0.82836983  0.53446771  0.92552882    -0.74100
O2883       O  0.84391630  0.60392641  0.93961920    -0.73900
O2884       O  0.82134320  0.56797322  0.89455934    -0.79600
O2885       O  0.81132933  0.60383914  0.96152657    -0.77800
O2886       O  0.80070991  0.55544771  0.94989106    -1.13900
O2887       O  0.77046889  0.56637706  0.98726753    -0.73100
C2888       C  0.76928443  0.54964095  0.50903325     0.97600
C2889       C  0.80924561  0.51182204  0.92414074     0.94000
Al2890     Al  0.83238268  0.56777630  0.93476741     1.55600
O2891       O  0.75074681  0.51440228  0.95869547    -0.77800
C2892       C  0.83444212  0.61574499  0.95336936     0.98200
C2893       C  0.83905607  0.54840803  0.99033638     0.93000
O2894       O  0.81685127  0.52922912  0.98673277    -0.83100
O2895       O  0.91516291  0.80323828  0.91391213    -0.82500
C2896       C  0.90259239  0.76199483  0.53569923     0.96800
O2897       O  0.88368926  0.75268774  0.51738625    -0.71600
O2898       O  0.88103483  0.79695176  0.98992440    -0.75200
Al2899     Al  0.88324800  0.76914480  0.97367038     1.49000
C2900       C  0.89114034  0.81975504  0.98058240     0.92100
O2901       O  0.95446764  0.83536679  0.98543733    -0.81500
O2902       O  0.94959407  0.77256139  0.94761583    -0.75000
Al2903     Al  0.93343003  0.81725144  0.95061614     1.90100
O2904       O  0.96576147  0.80672942  0.99530251    -0.74100
O2905       O  0.91115947  0.73828749  0.98263032    -0.73900
O2906       O  0.92528719  0.77096244  0.52596800    -0.79600
O2907       O  0.87968922  0.73824883  0.95774237    -0.77800
O2908       O  0.91742169  0.78687688  0.97017052    -1.13900
O2909       O  0.87696317  0.77575126  0.93249146    -0.73100
C2910       C  0.89160337  0.78760701  0.91011127     0.97600
C2911       C  0.96973758  0.82933808  0.99791624     0.94000
Al2912     Al  0.93606469  0.77425630  0.98656718     1.55600
O2913       O  0.91027255  0.82896258  0.96276555    -0.77800
C2914       C  0.89047100  0.72647012  0.96783488     0.98200
C2915       C  0.96206113  0.79220863  0.93078627     0.93000
O2916       O  0.95966898  0.81187590  0.93352662    -0.83100
O2917       O  0.84433687  0.81054706  0.68050521    -0.82500
C2918       C  0.85423632  0.76826938  0.78558767     0.96800
O2919       O  0.84114265  0.77819394  0.77651641    -0.71600
O2920       O  0.83262118  0.80954233  0.74262797    -0.75200
Al2921     Al  0.82738768  0.77574559  0.73702110     1.49000
C2922       C  0.85213119  0.83164527  0.74237036     0.92100
O2923       O  0.90855782  0.82392175  0.71326298    -0.81500
O2924       O  0.88239922  0.76732273  0.68217442    -0.75000
Al2925     Al  0.87479184  0.81461657  0.69925155     1.90100
O2926       O  0.90334288  0.78957309  0.73748056    -0.74100
O2927       O  0.84098996  0.73496886  0.70954303    -0.73900
O2928       O  0.86181470  0.75717192  0.76694754    -0.79600
O2929       O  0.81267196  0.73879434  0.73631644    -0.77800
O2930       O  0.85800165  0.78491956  0.71990023    -1.13900
O2931       O  0.81218673  0.77364159  0.69795193    -0.73100
C2932       C  0.82136575  0.79215984  0.67888815     0.97600
C2933       C  0.91745227  0.81239306  0.72877710     0.94000
Al2934     Al  0.87090977  0.76401038  0.72380461     1.55600
O2935       O  0.87317345  0.83501741  0.73199959    -0.77800
C2936       C  0.81870313  0.72525194  0.72020305     0.98200
C2937       C  0.88319458  0.78115180  0.65982804     0.93000
O2938       O  0.87869493  0.79925536  0.66357781    -0.83100
O2939       O  0.71633440  0.54260760  0.75382603    -0.82500
C2940       C  0.75597714  0.57083039  0.63476762     0.96800
O2941       O  0.73865591  0.57497582  0.64513748    -0.71600
O2942       O  0.69993810  0.53223569  0.66797751    -0.75200
Al2943     Al  0.72134754  0.56579833  0.68464440     1.49000
C2944       C  0.69021890  0.51119541  0.68258154     0.92100
O2945       O  0.74896763  0.51550757  0.70229484    -0.81500
O2946       O  0.78454827  0.58687966  0.73680620    -0.75000
Al2947     Al  0.73302689  0.53082604  0.72670276     1.90100
O2948       O  0.78571530  0.55124134  0.69859749    -0.74100
O2949       O  0.77765915  0.60926945  0.68799081    -0.73900
O2950       O  0.77192843  0.56948507  0.65246833    -0.79600
O2951       O  0.73886263  0.60049490  0.69966043    -0.77800
O2952       O  0.74356113  0.55794784  0.70189907    -1.13900
O2953       O  0.69978793  0.55752729  0.72000482    -0.73100
C2954       C  0.70072527  0.55010863  0.74694352     0.97600
C2955       C  0.77298656  0.52701376  0.69748722     0.94000
Al2956     Al  0.77708024  0.57762724  0.69446336     1.55600
O2957       O  0.70136948  0.50915230  0.70606789    -0.77800
C2958       C  0.76222796  0.61668614  0.69543161     0.98200
C2959       C  0.77882187  0.57025659  0.75784514     0.93000
O2960       O  0.76193449  0.54696801  0.75361735    -0.83100
O2961       O  0.60926825  0.48587953  0.83166410    -0.82500
C2962       C  0.56794743  0.47416136  0.94925856     0.96800
O2963       O  0.58424158  0.49593691  0.93831067    -0.71600
O2964       O  0.62562168  0.49684112  0.91622546    -0.75200
Al2965     Al  0.60124444  0.50496110  0.89877667     1.49000
C2966       C  0.63609275  0.48547766  0.90365775     0.92100
O2967       O  0.58024359  0.42797422  0.88562073    -0.81500
O2968       O  0.54014295  0.45752175  0.84713545    -0.75000
Al2969     Al  0.59403817  0.45822727  0.85978564     1.90100
O2970       O  0.54161418  0.42271748  0.88708695    -0.74100
O2971       O  0.54353003  0.48615484  0.89482369    -0.73900
O2972       O  0.55299468  0.45571222  0.93212356    -0.79600
O2973       O  0.58056709  0.51902092  0.88361623    -0.77800
O2974       O  0.58123456  0.47365564  0.88279763    -1.13900
O2975       O  0.62193717  0.51893813  0.86264672    -0.73100
C2976       C  0.62241400  0.50967809  0.83673207     0.97600
C2977       C  0.55639494  0.41363962  0.88987255     0.94000
Al2978     Al  0.54749710  0.45707776  0.88978647     1.55600
O2979       O  0.62546317  0.47078614  0.88123832    -0.77800
C2980       C  0.55679515  0.50955484  0.88822795     0.98200
C2981       C  0.54778719  0.44798280  0.82661010     0.93000
O2982       O  0.56553704  0.44300639  0.83218471    -0.83100
O2983       O  0.47798116  0.61937128  0.91911856    -0.82500
C2984       C  0.46626419  0.57253192  0.80559113     0.96800
O2985       O  0.48781150  0.59020524  0.81513907    -0.71600
O2986       O  0.48807029  0.63222847  0.83250624    -0.75200
Al2987     Al  0.49690026  0.60934593  0.85280079     1.49000
C2988       C  0.47797632  0.64406657  0.84465575     0.92100
O2989       O  0.42085409  0.58939161  0.86456157    -0.81500
O2990       O  0.44951974  0.55133731  0.91017119    -0.75000
Al2991     Al  0.45056528  0.60393399  0.89096660     1.90100
O2992       O  0.41530602  0.55048198  0.86722392    -0.74100
O2993       O  0.47895114  0.55181134  0.86501149    -0.73900
O2994       O  0.44841963  0.55803197  0.82379478    -0.79600
O2995       O  0.51170485  0.59034229  0.87020815    -0.77800
O2996       O  0.46589734  0.58989534  0.86998855    -1.13900
O2997       O  0.51083991  0.63178643  0.88744103    -0.73100
C2998       C  0.50177493  0.63230248  0.91356229     0.97600
C2999       C  0.40648059  0.56530101  0.86215795     0.94000
Al3000     Al  0.44954939  0.55577270  0.86669126     1.55600
O3001       O  0.46414122  0.63504011  0.86821804    -0.77800
C3002       C  0.50247475  0.56637213  0.87020587     0.98200
C3003       C  0.43948007  0.55993617  0.92881085     0.93000
O3004       O  0.43402407  0.57661890  0.91993707    -0.83100
O3005       O  0.52591792  0.71058794  0.00712715    -0.82500
C3006       C  0.56656446  0.76249912  0.61220338     0.96800
O3007       O  0.55852474  0.73991303  0.60278058    -0.71600
O3008       O  0.52834449  0.69981312  0.56935510    -0.75200
Al3009     Al  0.56145985  0.72956395  0.56306749     1.49000
C3010       C  0.50567174  0.69579097  0.56899995     0.92100
O3011       O  0.50904242  0.75792545  0.53886928    -0.81500
O3012       O  0.56573770  0.79192982  0.50889036    -0.75000
Al3013     Al  0.52085246  0.73528999  0.52534251     1.90100
O3014       O  0.54170869  0.78814596  0.56393193    -0.74100
O3015       O  0.60020048  0.78610126  0.53744194    -0.73900
O3016       O  0.57573195  0.78161168  0.59392359    -0.79600
O3017       O  0.59802695  0.75356957  0.56184365    -0.77800
O3018       O  0.55043766  0.74974940  0.54630209    -1.13900
O3019       O  0.56447172  0.71707197  0.52398816    -0.73100
C3020       C  0.54590050  0.70661784  0.50531279     0.97600
C3021       C  0.51898692  0.77826170  0.55445714     0.94000
Al3022     Al  0.56924667  0.78385326  0.55074073     1.55600
O3023       O  0.50098430  0.71236807  0.55776328    -0.77800
C3024       C  0.61103505  0.77432933  0.54730810     0.98200
C3025       C  0.55210723  0.77888074  0.98710105     0.93000
O3026       O  0.53493704  0.75581047  0.99076380    -0.83100
O3027       O  0.80173077  0.85647851  0.58661939    -0.82500
C3028       C  0.76574873  0.86829221  0.97368812     0.96800
O3029       O  0.76207051  0.84672116  0.98324297    -0.71600
O3030       O  0.80411170  0.84821507  0.00259871    -0.75200
Al3031     Al  0.77133987  0.83554064  0.52168157     1.49000
C3032       C  0.82522209  0.85589978  0.51335234     0.92100
O3033       O  0.82579460  0.91373566  0.53205451    -0.81500
O3034       O  0.75856732  0.88191154  0.57687672    -0.75000
Al3035     Al  0.81184385  0.88351873  0.55822017     1.90100
O3036       O  0.79085150  0.91632370  0.53398652    -0.74100
O3037       O  0.73055439  0.85199154  0.53046474    -0.73900
O3038       O  0.76754994  0.88537526  0.99201971    -0.79600
O3039       O  0.73737609  0.82028963  0.53895307    -0.77800
O3040       O  0.78229139  0.86678178  0.53758094    -1.13900
O3041       O  0.77998426  0.82250911  0.55720141    -0.73100
C3042       C  0.79056485  0.83253473  0.58251597     0.97600
C3043       C  0.81479293  0.92699926  0.53032163     0.94000
Al3044     Al  0.76338774  0.88187960  0.53327614     1.55600
O3045       O  0.83036624  0.87132101  0.53524256    -0.77800
C3046       C  0.72206858  0.82867648  0.53630382     0.98200
C3047       C  0.77726206  0.89287289  0.59547009     0.93000
O3048       O  0.79956177  0.89834446  0.58724201    -0.83100
O3049       O  0.94568024  0.15636688  0.66577412    -0.82500
C3050       C  0.90393999  0.14519847  0.78363092     0.96800
O3051       O  0.92294073  0.16563721  0.77336983    -0.71600
O3052       O  0.96265938  0.16381849  0.75140112    -0.75200
Al3053     Al  0.94029736  0.17462354  0.73445238     1.49000
C3054       C  0.97360807  0.15376873  0.73705663     0.92100
O3055       O  0.91612334  0.09826400  0.71940613    -0.81500
O3056       O  0.87849788  0.12990430  0.67944714    -0.75000
Al3057     Al  0.93070783  0.12841893  0.69352365     1.90100
O3058       O  0.87798643  0.09484168  0.72134374    -0.74100
O3059       O  0.88313718  0.16029294  0.72560527    -0.73900
O3060       O  0.88789238  0.12809418  0.76587195    -0.79600
O3061       O  0.92254075  0.19146560  0.71991466    -0.77800
O3062       O  0.91876684  0.14436040  0.71715466    -1.13900
O3063       O  0.96123811  0.18836172  0.69892898    -0.73100
C3064       C  0.95995232  0.17986117  0.67207404     0.97600
C3065       C  0.89210664  0.08488554  0.72399331     0.94000
Al3066     Al  0.88480821  0.12963780  0.72268940     1.55600
O3067       O  0.96303738  0.14041736  0.71362311    -0.77800
C3068       C  0.89891542  0.18369386  0.72115489     0.98200
C3069       C  0.88510756  0.11887849  0.65973918     0.93000
O3070       O  0.90210369  0.11316342  0.66629460    -0.83100
O3071       O  0.81487295  0.28424156  0.75032651    -0.82500
C3072       C  0.80667672  0.24302760  0.63377193     0.96800
O3073       O  0.82751973  0.26179287  0.64332500    -0.71600
O3074       O  0.82241921  0.29989372  0.66388444    -0.75200
Al3075     Al  0.83516215  0.27953212  0.68214187     1.49000
C3076       C  0.81123748  0.30986190  0.67782379     0.92100
O3077       O  0.75748739  0.25102901  0.69637880    -0.81500
O3078       O  0.79240179  0.21719192  0.73835107    -0.75000
Al3079     Al  0.78742467  0.26743212  0.72255748     1.90100
O3080       O  0.75704059  0.21439763  0.69601271    -0.74100
O3081       O  0.82379256  0.22342373  0.69246913    -0.73900
O3082       O  0.79050008  0.22650041  0.65206583    -0.79600
O3083       O  0.85364907  0.26352105  0.69755940    -0.77800
O3084       O  0.80517384  0.25693608  0.69982692    -1.13900
O3085       O  0.84743256  0.30132540  0.71760844    -0.73100
C3086       C  0.83816254  0.29992547  0.74421571     0.97600
C3087       C  0.74585627  0.22707593  0.69107773     0.94000
Al3088     Al  0.79223965  0.22328492  0.69497121     1.55600
O3089       O  0.79805415  0.29913572  0.70147955    -0.77800
C3090       C  0.84677153  0.24001771  0.69757824     0.98200
C3091       C  0.77982406  0.22248799  0.75742675     0.93000
O3092       O  0.77319670  0.23881498  0.75056519    -0.83100
O3093       O  0.04481012  0.20196812  0.58575155    -0.82500
C3094       C  0.09656506  0.23925785  0.97296396     0.96800
O3095       O  0.07741752  0.24115881  0.98142398    -0.71600
O3096       O  0.03673943  0.19927192  0.00122229    -0.75200
Al3097     Al  0.05576824  0.22974258  0.51882795     1.49000
C3098       C  0.02193538  0.17535001  0.51356513     0.92100
O3099       O  0.07819933  0.17517229  0.53677466    -0.81500
O3100       O  0.11389264  0.24329933  0.57852295    -0.75000
Al3101     Al  0.06192851  0.19038089  0.56019335     1.90100
O3102       O  0.11593300  0.20987854  0.53745872    -0.74100
O3103       O  0.11312713  0.27078079  0.53192482    -0.73900
O3104       O  0.11221401  0.23893543  0.99207730    -0.79600
O3105       O  0.07426314  0.26440827  0.53317719    -0.77800
O3106       O  0.07560607  0.21932159  0.53787501    -1.13900
O3107       O  0.03384457  0.22317259  0.55334032    -0.73100
C3108       C  0.03281025  0.21363930  0.57960635     0.97600
C3109       C  0.10239683  0.18585591  0.53487971     0.94000
Al3110     Al  0.10980181  0.23790818  0.53510584     1.55600
O3111       O  0.03199409  0.17126466  0.53653746    -0.77800
C3112       C  0.09807068  0.27938674  0.53472369     0.98200
C3113       C  0.10561955  0.22512550  0.59792717     0.93000
O3114       O  0.08816276  0.20295166  0.59043947    -0.83100
O3115       O  0.17985112  0.47218055  0.00118487    -0.82500
C3116       C  0.19325541  0.43351707  0.61205524     0.96800
O3117       O  0.17175967  0.43040309  0.60330030    -0.71600
O3118       O  0.17103404  0.47166442  0.58435713    -0.75200
Al3119     Al  0.16176995  0.43947745  0.56545642     1.49000
C3120       C  0.18392607  0.49422489  0.57398199     0.92100
O3121       O  0.24024457  0.49343669  0.55023417    -0.81500
O3122       O  0.20630350  0.42593734  0.50746619    -0.75000
Al3123     Al  0.20879577  0.47972413  0.52654433     1.90100
O3124       O  0.24210489  0.45825947  0.54793932    -0.74100
O3125       O  0.17805721  0.39875246  0.55474166    -0.73900
O3126       O  0.21024424  0.43553079  0.59332509    -0.79600
O3127       O  0.14570474  0.40487858  0.54975762    -0.77800
O3128       O  0.19251330  0.45022116  0.54765213    -1.13900
O3129       O  0.14734687  0.44726961  0.53079476    -0.73100
C3130       C  0.15665340  0.45852515  0.50549224     0.97600
C3131       C  0.25325374  0.48216794  0.55135599     0.94000
Al3132     Al  0.20764958  0.43120024  0.55069076     1.55600
O3133       O  0.19877477  0.49893384  0.55148159    -0.77800
C3134       C  0.15443724  0.38977611  0.55154355     0.98200
C3135       C  0.21660395  0.44771240  0.98934263     0.93000
O3136       O  0.22178252  0.46989059  0.99755543    -0.83100
O3137       O  0.86183894  0.38804818  0.83058854    -0.82500
C3138       C  0.89067152  0.42969390  0.94794638     0.96800
O3139       O  0.89471009  0.41222403  0.93793489    -0.71600
O3140       O  0.85307813  0.37210475  0.91605907    -0.75200
Al3141     Al  0.88639786  0.39472555  0.89892365     1.49000
C3142       C  0.83174214  0.36207624  0.90234045     0.92100
O3143       O  0.83429049  0.42013846  0.88155915    -0.81500
O3144       O  0.90480139  0.45651511  0.84455090    -0.75000
Al3145     Al  0.84978523  0.40441342  0.85736860     1.90100
O3146       O  0.86950868  0.45748082  0.88350687    -0.74100
O3147       O  0.92864871  0.45174853  0.89352831    -0.73900
O3148       O  0.88901599  0.44541859  0.93002873    -0.79600
O3149       O  0.92122235  0.41317272  0.88389567    -0.77800
O3150       O  0.87739710  0.41604823  0.88136975    -1.13900
O3151       O  0.87932141  0.37352092  0.86369152    -0.73100
C3152       C  0.87156076  0.37421752  0.83692189     0.97600
C3153       C  0.84540343  0.44427084  0.88496365     0.94000
Al3154     Al  0.89642275  0.44983858  0.88749025     1.55600
O3155       O  0.82895095  0.37298353  0.87906978    -0.77800
C3156       C  0.93685597  0.43679565  0.88699912     0.98200
C3157       C  0.88788875  0.44975677  0.82372493     0.93000
O3158       O  0.86484449  0.43270722  0.82925995    -0.83100
O3159       O  0.13224672  0.51188035  0.90782939    -0.82500
C3160       C  0.09126360  0.52253278  0.80101448     0.96800
O3161       O  0.09816549  0.50738625  0.81172075    -0.71600
O3162       O  0.12896763  0.49845158  0.84529399    -0.75200
Al3163     Al  0.09624005  0.49562089  0.85248523     1.49000
C3164       C  0.15190664  0.51669727  0.84505987     0.92100
O3165       O  0.15049601  0.57677192  0.87322844    -0.81500
O3166       O  0.09548096  0.55735019  0.90250251    -0.75000
Al3167     Al  0.13819310  0.54256812  0.88800823     1.90100
O3168       O  0.11893120  0.57413446  0.84553988    -0.74100
O3169       O  0.05923434  0.51640028  0.87626067    -0.73900
O3170       O  0.08307261  0.53357971  0.81881281    -0.79600
O3171       O  0.05990530  0.48396180  0.85547434    -0.77800
O3172       O  0.10837614  0.52748026  0.86737259    -1.13900
O3173       O  0.09414206  0.48118500  0.89254001    -0.73100
C3174       C  0.11325090  0.48943375  0.91046111     0.97600
C3175       C  0.14164296  0.58669210  0.85498610     0.94000
Al3176     Al  0.09068494  0.54380981  0.86131613     1.55600
O3177       O  0.15732455  0.53831979  0.85575131    -0.77800
C3178       C  0.04768255  0.49310848  0.86889843     0.98200
C3179       C  0.10799800  0.55657133  0.92549072     0.93000
O3180       O  0.12362241  0.54854745  0.92293848    -0.83100
O3181       O  0.79865753  0.92172192  0.84181340    -0.82500
C3182       C  0.76352877  0.91279102  0.72157759     0.96800
O3183       O  0.75521192  0.89398601  0.74015251    -0.71600
O3184       O  0.79187528  0.88948978  0.76555346    -0.75200
Al3185     Al  0.76448891  0.89235889  0.78217463     1.49000
C3186       C  0.81482836  0.89940840  0.77408115     0.92100
O3187       O  0.83156501  0.96406041  0.77277676    -0.81500
O3188       O  0.76849632  0.95818442  0.81075057    -0.75000
Al3189     Al  0.81287651  0.94137793  0.80616398     1.90100
O3190       O  0.80337077  0.97607754  0.76353352    -0.74100
O3191       O  0.73427683  0.92102986  0.77369429    -0.73900
O3192       O  0.77250959  0.93558932  0.73088212    -0.79600
O3193       O  0.73406779  0.88946880  0.79836448    -0.77800
O3194       O  0.78275642  0.92644334  0.78648781    -1.13900
O3195       O  0.77029741  0.88439223  0.82313963    -0.73100
C3196       C  0.78244442  0.89832141  0.84574066     0.97600
C3197       C  0.82605581  0.98013922  0.76164624     0.94000
Al3198     Al  0.77062550  0.94596663  0.77106082     1.55600
O3199       O  0.82447315  0.91859557  0.79174782    -0.77800
C3200       C  0.72205937  0.89970245  0.78740912     0.98200
C3201       C  0.78763532  0.96919731  0.82857256     0.93000
O3202       O  0.80719386  0.96664892  0.82543065    -0.83100
O3203       O  0.53441767  0.78781304  0.74076611    -0.82500
C3204       C  0.56656003  0.81497277  0.86195764     0.96800
O3205       O  0.57549999  0.80454017  0.84426438    -0.71600
O3206       O  0.54057097  0.76309066  0.81738540    -0.75200
Al3207     Al  0.56805222  0.79392343  0.80185331     1.49000
C3208       C  0.51775382  0.74984932  0.80847207     0.92100
O3209       O  0.50044645  0.79799055  0.80825701    -0.81500
O3210       O  0.56435114  0.85498904  0.77046287    -0.75000
Al3211     Al  0.51971784  0.79369835  0.77565843     1.90100
O3212       O  0.52844329  0.83840455  0.81593716    -0.74100
O3213       O  0.59747500  0.85286614  0.81006442    -0.73900
O3214       O  0.55795988  0.82886345  0.85154314    -0.79600
O3215       O  0.59877904  0.82181391  0.78670877    -0.77800
O3216       O  0.54952931  0.80925481  0.79603197    -1.13900
O3217       O  0.56379508  0.78074458  0.76091490    -0.73100
C3218       C  0.55135940  0.78150188  0.73791831     0.97600
C3219       C  0.50592274  0.81975057  0.81869064     0.94000
Al3220     Al  0.56111212  0.84100704  0.81073401     1.55600
O3221       O  0.50796352  0.75938794  0.79090708    -0.77800
C3222       C  0.61022909  0.84441014  0.79656372     0.98200
C3223       C  0.54582021  0.84645008  0.75162326     0.93000
O3224       O  0.52592940  0.82453154  0.75517945    -0.83100
O3225       O  0.57857626  0.13430607  0.58149259    -0.82500
C3226       C  0.57145938  0.09716462  0.70069816     0.96800
O3227       O  0.55264465  0.08812430  0.68214795    -0.71600
O3228       O  0.54599400  0.12372939  0.65678774    -0.75200
Al3229     Al  0.55057869  0.09755971  0.64006747     1.49000
C3230       C  0.55497396  0.14682683  0.64895969     0.92100
O3231       O  0.62210137  0.16666087  0.64988477    -0.81500
O3232       O  0.61720292  0.10452514  0.61027672    -0.75000
Al3233     Al  0.59871821  0.14788930  0.61687235     1.90100
O3234       O  0.63408979  0.13833944  0.65713865    -0.74100
O3235       O  0.58116951  0.06960413  0.64835583    -0.73900
O3236       O  0.59435528  0.10696403  0.69110581    -0.79600
O3237       O  0.54925590  0.06798824  0.62302901    -0.77800
O3238       O  0.58457304  0.11724886  0.63579078    -1.13900
O3239       O  0.54225704  0.10337709  0.59956537    -0.73100
C3240       C  0.55559809  0.11704698  0.57733075     0.97600
C3241       C  0.63895100  0.16125905  0.65822105     0.94000
Al3242     Al  0.60485435  0.10582593  0.65055222     1.55600
O3243       O  0.57536772  0.15831968  0.63319000    -0.77800
C3244       C  0.56088041  0.05709832  0.63316869     0.98200
C3245       C  0.62735108  0.12364759  0.59202279     0.93000
O3246       O  0.62408896  0.14282568  0.59559069    -0.83100
O3247       O  0.45382271  0.87358206  0.67114460    -0.82500
C3248       C  0.47669353  0.90740180  0.55006426     0.96800
O3249       O  0.46712924  0.91633042  0.56892965    -0.71600
O3250       O  0.42571110  0.87888747  0.59359834    -0.75200
Al3251     Al  0.45602144  0.90622504  0.61071408     1.49000
C3252       C  0.41189730  0.85680953  0.60483486     0.92100
O3253       O  0.45794425  0.83857916  0.60097122    -0.81500
O3254       O  0.51795824  0.90055669  0.63760583    -0.75000
Al3255     Al  0.45632458  0.85787610  0.63518137     1.90100
O3256       O  0.49829511  0.86597098  0.59040206    -0.74100
O3257       O  0.51481812  0.93529909  0.60208667    -0.73900
O3258       O  0.49012404  0.89792118  0.55901739    -0.79600
O3259       O  0.48395050  0.93623622  0.62742346    -0.77800
O3260       O  0.47154839  0.88769797  0.61484308    -1.13900
O3261       O  0.44190532  0.89971930  0.65152859    -0.73100
C3262       C  0.44594345  0.88928201  0.67448807     0.97600
C3263       C  0.47916828  0.84346869  0.58913431     0.94000
Al3264     Al  0.50270652  0.89911123  0.59858860     1.55600
O3265       O  0.42131827  0.84755285  0.62348725    -0.77800
C3266       C  0.50662663  0.94744851  0.61749794     0.98200
C3267       C  0.51041619  0.88065260  0.65406706     0.93000
O3268       O  0.48767775  0.86187160  0.65199650    -0.83100
O3269       O  0.88100066  0.09082225  0.91177748    -0.82500
C3270       C  0.85301236  0.09571237  0.53309629     0.64400
O3271       O  0.86340838  0.11469985  0.51485004    -0.71600
O3272       O  0.90682328  0.12028748  0.99062533    -0.75200
Al3273     Al  0.87655397  0.11805871  0.97439273     1.49000
C3274       C  0.92048399  0.11209773  0.97904245     0.92100
O3275       O  0.87381610  0.04779153  0.97939100    -0.81500
O3276       O  0.81564035  0.05199491  0.94147759    -0.75000
Al3277     Al  0.87677166  0.07052144  0.94653000     1.90100
O3278       O  0.83331587  0.03484038  0.98897772    -0.74100
O3279       O  0.81663762  0.08771515  0.97826265    -0.73900
O3280       O  0.83930180  0.07314097  0.52312349    -0.79600
O3281       O  0.84928956  0.12181050  0.95919377    -0.77800
O3282       O  0.86090921  0.08426521  0.96761530    -1.13900
O3283       O  0.89045073  0.12754609  0.93364667    -0.73100
C3284       C  0.88818532  0.11437789  0.91001969     0.97600
C3285       C  0.85241481  0.03145014  0.99084642     0.94000
Al3286     Al  0.82897433  0.06377091  0.98167452     1.55600
O3287       O  0.91111933  0.09394562  0.95998439    -0.77800
C3288       C  0.82590712  0.10968966  0.96627581     0.98200
C3289       C  0.82406348  0.04125836  0.92378194     0.93000
O3290       O  0.84633162  0.04439104  0.92715317    -0.83100
O3291       O  0.74654726  0.21675162  0.50640907    -0.82500
C3292       C  0.75381240  0.19058347  0.88380306     0.96800
O3293       O  0.77260053  0.20314744  0.90171395    -0.71600
O3294       O  0.77506928  0.24344675  0.92691614    -0.75200
Al3295     Al  0.77474025  0.21413327  0.94356284     1.49000
C3296       C  0.76618273  0.25641459  0.93876574     0.92100
O3297       O  0.70290344  0.20741804  0.93835340    -0.81500
O3298       O  0.70936162  0.15031545  0.97568100    -0.75000
Al3299     Al  0.72575019  0.21110747  0.97120326     1.90100
O3300       O  0.69181765  0.16746933  0.92782492    -0.74100
O3301       O  0.74735044  0.15429767  0.93927543    -0.73900
O3302       O  0.73157761  0.17580261  0.89433265    -0.79600
O3303       O  0.78009862  0.18793049  0.95902330    -0.77800
O3304       O  0.74084386  0.19673758  0.95001145    -1.13900
O3305       O  0.78338727  0.22830554  0.98438250    -0.73100
C3306       C  0.77052128  0.22601476  0.50848352     0.97600
C3307       C  0.68708810  0.18575979  0.92708715     0.94000
Al3308     Al  0.72176857  0.16474327  0.93552194     1.55600
O3309       O  0.74825664  0.24625342  0.95828501    -0.77800
C3310       C  0.76951032  0.16485089  0.95100460     0.98200
C3311       C  0.69736042  0.15777515  0.99282590     0.93000
O3312       O  0.70019566  0.17994295  0.98981758    -0.83100
C3313       C  0.77015866  0.12389456  0.96016919    -0.21000
C3314       C  0.78375136  0.15054852  0.95458538    -0.07600
C3315       C  0.81089098  0.16310590  0.95162745     0.13300
C3316       C  0.82350183  0.14895708  0.95503891    -0.21100
C3317       C  0.81017806  0.12245595  0.96157210    -0.07600
C3318       C  0.78294958  0.10971304  0.96398124     0.13300
C3319       C  0.76709977  0.08126740  0.97030081    -0.24400
H3320       H  0.74939764  0.11416496  0.96207987     0.14500
H3321       H  0.84425756  0.15902067  0.95297152     0.14600
C3322       C  0.82699137  0.19137562  0.94397652    -0.24400
H3323       H  0.74618272  0.07449934  0.97022042     0.04800
H3324       H  0.77190822  0.07679249  0.99332037     0.08000
H3325       H  0.77084318  0.07045590  0.95230323     0.08000
H3326       H  0.82627095  0.20311405  0.96318032     0.08000
H3327       H  0.81990590  0.19572093  0.92245686     0.08000
H3328       H  0.84753222  0.19733468  0.94034317     0.04800
C3329       C  0.67023700  0.13416209  0.57203144    -0.21000
C3330       C  0.64402881  0.12475287  0.56631320    -0.07600
C3331       C  0.63541588  0.12191052  0.53557841     0.13300
C3332       C  0.65345510  0.13105254  0.51144941    -0.21100
C3333       C  0.67987160  0.14292383  0.51744825    -0.07600
C3334       C  0.68833234  0.14351846  0.54786819     0.13300
C3335       C  0.71656028  0.15549147  0.55486001    -0.24400
H3336       H  0.67679419  0.13595400  0.59556006     0.14500
H3337       H  0.64706040  0.13064060  0.48801038     0.14600
C3338       C  0.60729861  0.11037586  0.52837539    -0.24400
H3339       H  0.71999998  0.15399997  0.57965976     0.04800
H3340       H  0.72513230  0.17015176  0.04862120     0.08000
H3341       H  0.72478549  0.14551256  0.54162378     0.08000
H3342       H  0.60011774  0.12251263  0.53831939     0.08000
H3343       H  0.59638067  0.09072468  0.53835261     0.08000
H3344       H  0.60371359  0.10906058  0.50318418     0.04800
C3345       C  0.54054074  0.01323417  0.65489837    -0.21000
C3346       C  0.54971209  0.02923406  0.62889428    -0.07600
C3347       C  0.54665295  0.01830780  0.59942305     0.13300
C3348       C  0.53356037  0.99140994  0.59651006    -0.21100
C3349       C  0.52308487  0.97535734  0.62237112    -0.07600
C3350       C  0.52704365  0.98635733  0.65197492     0.13300
C3351       C  0.51741115  0.96980577  0.68047394    -0.24400
H3352       H  0.54320373  0.02183335  0.67748471     0.14500
H3353       H  0.53062048  0.98286849  0.57385913     0.14600
C3354       C  0.55735788  0.03503638  0.57119860    -0.24400
H3355       H  0.52301087  0.98155585  0.70176080     0.04800
H3356       H  0.52572523  0.95696010  0.68153804     0.08000
H3357       H  0.49612676  0.95802083  0.68013180     0.08000
H3358       H  0.57845010  0.04773954  0.57371117     0.08000
H3359       H  0.54831042  0.04709006  0.56819559     0.08000
H3360       H  0.55374475  0.02340172  0.55003552     0.04800
C3361       C  0.54229193  0.84968418  0.69603427    -0.21000
C3362       C  0.54623886  0.86153881  0.72476560    -0.07600
C3363       C  0.54412097  0.88379368  0.72780861     0.13300
C3364       C  0.53554351  0.89216930  0.70253016    -0.21100
C3365       C  0.52802935  0.87792513  0.67520120    -0.07600
C3366       C  0.53298471  0.85747774  0.67122604     0.13300
C3367       C  0.52715153  0.84293510  0.64135983    -0.24400
H3368       H  0.54426211  0.83276323  0.69382308     0.14500
H3369       H  0.53249801  0.90836349  0.70504669     0.14600
C3370       C  0.54866903  0.89721724  0.75829574    -0.24400
H3371       H  0.53321740  0.82823980  0.64183290     0.04800
H3372       H  0.53741914  0.85648296  0.62213431     0.08000
H3373       H  0.50621790  0.83283503  0.63700577     0.08000
H3374       H  0.56869917  0.90408871  0.76590408     0.08000
H3375       H  0.53512312  0.88372163  0.77581505     0.08000
H3376       H  0.54576378  0.91405340  0.75678459     0.04800
C3377       C  0.79368383  0.99730561  0.90702800    -0.21000
C3378       C  0.80779053  0.02354672  0.89967548    -0.07600
C3379       C  0.81067364  0.03147890  0.86861619     0.13300
C3380       C  0.80080303  0.01285720  0.84540212    -0.21100
C3381       C  0.78870232  0.98663965  0.85270797    -0.07600
C3382       C  0.78428773  0.97866845  0.88377546     0.13300
C3383       C  0.77119005  0.95059105  0.89231127    -0.24400
H3384       H  0.79187037  0.99137320  0.93093890     0.14500
H3385       H  0.80445393  0.01877751  0.82144766     0.14600
C3386       C  0.82524651  0.05949421  0.85993126    -0.24400
H3387       H  0.76905169  0.94766153  0.91763926     0.04800
H3388       H  0.78265878  0.94207128  0.88381912     0.08000
H3389       H  0.75176440  0.94032687  0.88181995     0.08000
H3390       H  0.84530016  0.06845821  0.86838794     0.08000
H3391       H  0.81554629  0.06924712  0.87029208     0.08000
H3392       H  0.82593400  0.06235207  0.83459578     0.04800
C3393       C  0.68054541  0.89967494  0.79390012    -0.21000
C3394       C  0.69347632  0.88585046  0.78947330    -0.07600
C3395       C  0.67877723  0.85879575  0.78602290     0.13300
C3396       C  0.65193765  0.84639078  0.78798689    -0.21100
C3397       C  0.63885154  0.85990389  0.79351726    -0.07600
C3398       C  0.65346521  0.88707766  0.79629462     0.13300
C3399       C  0.64083270  0.90301945  0.80130245    -0.24400
H3400       H  0.69173070  0.92041081  0.79602851     0.14500
H3401       H  0.64108105  0.82566167  0.78561629     0.14600
C3402       C  0.69099892  0.84264894  0.77929424    -0.24400
H3403       H  0.65508989  0.92391938  0.80142184     0.04800
H3404       H  0.63078463  0.89813400  0.82386554     0.08000
H3405       H  0.62688139  0.89940655  0.78254820     0.08000
H3406       H  0.70269490  0.84293862  0.79919903     0.08000
H3407       H  0.70324650  0.85006052  0.75841507     0.08000
H3408       H  0.67642561  0.82221779  0.77501785     0.04800
C3409       C  0.98092868  0.46706575  0.90467579    -0.21000
C3410       C  0.96515624  0.44787626  0.88379704    -0.07600
C3411       C  0.97679659  0.44201995  0.85919615     0.13300
C3412       C  0.00378634  0.45654601  0.85526925    -0.21100
C3413       C  0.01948153  0.47673267  0.87541905    -0.07600
C3414       C  0.00772152  0.48133978  0.90104754     0.13300
C3415       C  0.02315894  0.50106233  0.92509899    -0.24400
H3416       H  0.97207550  0.47127644  0.92384763     0.14500
H3417       H  0.01256878  0.45260894  0.83581832     0.14600
C3418       C  0.96082650  0.42116089  0.83650604    -0.24400
H3419       H  0.01107422  0.50038917  0.94483840     0.04800
H3420       H  0.03190897  0.52064159  0.91499185     0.08000
H3421       H  0.03832971  0.49743228  0.93420357     0.08000
H3422       H  0.94645459  0.42506723  0.82558381     0.08000
H3423       H  0.95064869  0.40232258  0.84856368     0.08000
H3424       H  0.97284198  0.41977707  0.81801410     0.04800
C3425       C  0.80621696  0.32939353  0.94312074    -0.21000
C3426       C  0.81063327  0.33601237  0.91173685    -0.07600
C3427       C  0.79705515  0.31649693  0.88953717     0.13300
C3428       C  0.78156543  0.29083219  0.89917561    -0.21100
C3429       C  0.77817273  0.28407834  0.93041043    -0.07600
C3430       C  0.78971543  0.30375643  0.95270878     0.13300
C3431       C  0.78579009  0.29756713  0.98660286    -0.24400
H3432       H  0.81627878  0.34421889  0.96019183     0.14500
H3433       H  0.77257740  0.27573690  0.88214560     0.14600
C3434       C  0.79976558  0.32217238  0.85547322    -0.24400
H3435       H  0.80973747  0.31389649  0.49993141     0.04800
H3436       H  0.80280497  0.28247958  0.48792731     0.08000
H3437       H  0.76506541  0.28870071  0.99238580     0.08000
H3438       H  0.82018085  0.33108269  0.84857171     0.08000
H3439       H  0.79248642  0.33542326  0.84985383     0.08000
H3440       H  0.78868452  0.30449128  0.84155464     0.04800
C3441       C  0.14256662  0.45663095  0.95248026    -0.21000
C3442       C  0.13886835  0.46167137  0.98295208    -0.07600
C3443       C  0.12145914  0.47047818  0.98924734     0.13300
C3444       C  0.11002909  0.47624888  0.96456593    -0.21100
C3445       C  0.11536805  0.47304357  0.93400531    -0.07600
C3446       C  0.13077800  0.46190070  0.92797216     0.13300
C3447       C  0.13656855  0.45700507  0.89575790    -0.24400
H3448       H  0.15567240  0.44958801  0.94764746     0.14500
H3449       H  0.09870465  0.48538361  0.96903239     0.14600
C3450       C  0.11553835  0.47130054  0.51936171    -0.24400
H3451       H  0.15737631  0.46951113  0.89077453     0.04800
H3452       H  0.13149058  0.43658037  0.89366774     0.08000
H3453       H  0.12539793  0.46057007  0.87813864     0.08000
H3454       H  0.13331848  0.48551715  0.53135830     0.08000
H3455       H  0.10656665  0.45280443  0.53219677     0.08000
H3456       H  0.10185372  0.47864365  0.51958029     0.04800
C3457       C  0.11623550  0.35022029  0.53024531    -0.21000
C3458       C  0.13761374  0.36129207  0.55003708    -0.07600
C3459       C  0.14364148  0.34480014  0.56713179     0.13300
C3460       C  0.12956619  0.31822250  0.56223657    -0.21100
C3461       C  0.10928629  0.30725169  0.54113767    -0.07600
C3462       C  0.10197642  0.32333408  0.52558302     0.13300
C3463       C  0.08004441  0.31238109  0.50305857    -0.24400
H3464       H  0.11133507  0.36268495  0.51744433     0.14500
H3465       H  0.13476007  0.30580820  0.57470386     0.14600
C3466       C  0.16468478  0.35482850  0.59104121    -0.24400
H3467       H  0.07738820  0.32766874  0.49223195     0.04800
H3468       H  0.06191860  0.29885210  0.51512152     0.08000
H3469       H  0.08382468  0.30201074  0.48451711     0.08000
H3470       H  0.16187945  0.36720320  0.60769747     0.08000
H3471       H  0.18381928  0.36588127  0.57991716     0.08000
H3472       H  0.16469476  0.33897212  0.60427496     0.04800
C3473       C  0.95157034  0.12263421  0.51416025    -0.21000
C3474       C  0.94816576  0.12530846  0.98652044    -0.07600
C3475       C  0.96685967  0.14123863  0.96467232     0.13300
C3476       C  0.99249126  0.15706038  0.97394053    -0.21100
C3477       C  0.99614118  0.15498818  0.50299878    -0.07600
C3478       C  0.97691327  0.13834588  0.52430585     0.13300
C3479       C  0.98226839  0.13813622  0.55822527    -0.24400
H3480       H  0.93661444  0.11083655  0.53057336     0.14500
H3481       H  0.00653942  0.17007796  0.95740288     0.14600
C3482       C  0.95952010  0.14249432  0.93186754    -0.24400
H3483       H  0.96468420  0.12476807  0.57136525     0.04800
H3484       H  0.98967865  0.15764140  0.56797384     0.08000
H3485       H  0.99648703  0.13171873  0.56175843     0.08000
H3486       H  0.94509026  0.14887735  0.93122911     0.08000
H3487       H  0.95127589  0.12317554  0.92130209     0.08000
H3488       H  0.97633899  0.15616823  0.91781947     0.04800
C3489       C  0.70048152  0.21921627  0.68980908    -0.21000
C3490       C  0.71886203  0.21275221  0.67968863    -0.07600
C3491       C  0.71061375  0.19092543  0.66051425     0.13300
C3492       C  0.68465203  0.17589945  0.65338815    -0.21100
C3493       C  0.66600617  0.18109561  0.66501293    -0.07600
C3494       C  0.67401592  0.20349307  0.68277533     0.13300
C3495       C  0.65477106  0.21015893  0.69532625    -0.24400
H3496       H  0.70663308  0.23587679  0.70439256     0.14500
H3497       H  0.67865529  0.15917411  0.63902383     0.14600
C3498       C  0.72864396  0.18268911  0.64726326    -0.24400
H3499       H  0.66417710  0.22794809  0.70936163     0.04800
H3500       H  0.64066764  0.19424657  0.71012477     0.08000
H3501       H  0.64449287  0.21329217  0.67607363     0.08000
H3502       H  0.73668786  0.17605881  0.66574885     0.08000
H3503       H  0.74424462  0.19865396  0.63408665     0.08000
H3504       H  0.71866556  0.16627981  0.63122873     0.04800
C3505       C  0.86160823  0.33089041  0.82156786    -0.21000
C3506       C  0.87141723  0.35672736  0.81327215    -0.07600
C3507       C  0.87618616  0.36400477  0.78196316     0.13300
C3508       C  0.86720849  0.34479576  0.75949534    -0.21100
C3509       C  0.85381914  0.31869375  0.76784887    -0.07600
C3510       C  0.85235385  0.31163900  0.79915665     0.13300
C3511       C  0.84061014  0.28391971  0.80906800    -0.24400
H3512       H  0.85887407  0.32548118  0.84570384     0.14500
H3513       H  0.86906548  0.35025323  0.73539689     0.14600
C3514       C  0.89029439  0.39173958  0.77168440    -0.24400
H3515       H  0.84242393  0.28214041  0.83428034     0.04800
H3516       H  0.85066387  0.27509884  0.79724806     0.08000
H3517       H  0.81983696  0.27301988  0.80347926     0.08000
H3518       H  0.89795222  0.40534627  0.79123544     0.08000
H3519       H  0.90694739  0.39527005  0.75711686     0.08000
H3520       H  0.87729390  0.39600946  0.75800902     0.04800
C3521       C  0.81307348  0.23620605  0.57868435    -0.21000
C3522       C  0.79961968  0.24150522  0.60110587    -0.07600
C3523       C  0.77826950  0.24392659  0.59235236     0.13300
C3524       C  0.76983118  0.23926129  0.56191086    -0.21100
C3525       C  0.78244806  0.23289400  0.53945296    -0.07600
C3526       C  0.80477070  0.23186314  0.54780980     0.13300
C3527       C  0.81922934  0.22505902  0.52489775    -0.24400
H3528       H  0.82955720  0.23460622  0.58556873     0.14500
H3529       H  0.75311132  0.24069743  0.55568482     0.14600
C3530       C  0.76401955  0.25179751  0.61432244    -0.24400
H3531       H  0.83558639  0.22433684  0.53576147     0.04800
H3532       H  0.82718599  0.23973349  0.50629255     0.08000
H3533       H  0.80618111  0.20584772  0.51494345     0.08000
H3534       H  0.76333198  0.26852591  0.60463656     0.08000
H3535       H  0.77317185  0.25742360  0.63723852     0.08000
H3536       H  0.74393115  0.23588381  0.61708672     0.04800
C3537       C  0.74791844  0.20431390  0.79963110    -0.21000
C3538       C  0.77196403  0.20977041  0.78805223    -0.07600
C3539       C  0.78859863  0.20574991  0.80728320     0.13300
C3540       C  0.78173471  0.19850736  0.83816035    -0.21100
C3541       C  0.75821089  0.19426691  0.85010846    -0.07600
C3542       C  0.74067436  0.19633436  0.83020513     0.13300
C3543       C  0.71481696  0.19141776  0.84125524    -0.24400
H3544       H  0.73492127  0.20697693  0.78478997     0.14500
H3545       H  0.79501222  0.19652368  0.85325384     0.14600
C3546       C  0.81377867  0.20958779  0.79571372    -0.24400
H3547       H  0.70407502  0.19491512  0.82286794     0.04800
H3548       H  0.71724545  0.20428103  0.86083235     0.08000
H3549       H  0.70304024  0.17104215  0.84856327     0.08000
H3550       H  0.82562000  0.22935602  0.78642641     0.08000
H3551       H  0.80982303  0.19521202  0.77747079     0.08000
H3552       H  0.82493064  0.20673554  0.81414274     0.04800
C3553       C  0.85886598  0.04030189  0.71202476    -0.21000
C3554       C  0.87929483  0.05699480  0.73104059    -0.07600
C3555       C  0.88421714  0.04723376  0.75820425     0.13300
C3556       C  0.86775454  0.02123200  0.76645116    -0.21100
C3557       C  0.84621238  0.00500833  0.74841774    -0.07600
C3558       C  0.84230422  0.01451121  0.72031268     0.13300
C3559       C  0.82063681  0.99756290  0.69896517    -0.24400
H3560       H  0.85524028  0.04782907  0.69106750     0.14500
H3561       H  0.87065821  0.01406567  0.78812777     0.14600
C3562       C  0.90563300  0.06466611  0.77948608    -0.24400
H3563       H  0.82118329  0.00778692  0.67737274     0.04800
H3564       H  0.80178759  0.99117954  0.71013304     0.08000
H3565       H  0.82224649  0.98055608  0.69265797     0.08000
H3566       H  0.90257825  0.08050606  0.78739084     0.08000
H3567       H  0.92433098  0.07295351  0.76721229     0.08000
H3568       H  0.90655788  0.05417455  0.80010092     0.04800
C3569       C  0.89612359  0.21810826  0.69166702    -0.21000
C3570       C  0.88914404  0.20183229  0.71761295    -0.07600
C3571       C  0.87128618  0.20168610  0.73888066     0.13300
C3572       C  0.85944655  0.21619724  0.73254227    -0.21100
C3573       C  0.86471945  0.23077189  0.70557427    -0.07600
C3574       C  0.88387774  0.23248397  0.68528821     0.13300
C3575       C  0.89042689  0.24842834  0.65638471    -0.24400
H3576       H  0.91006628  0.21845536  0.67554065     0.14500
H3577       H  0.84515475  0.21541644  0.74808623     0.14600
C3578       C  0.86456140  0.18621604  0.76833052    -0.24400
H3579       H  0.90565012  0.24753302  0.64286184     0.04800
H3580       H  0.89743955  0.26881582  0.66245592     0.08000
H3581       H  0.87308077  0.24133560  0.64169492     0.08000
H3582       H  0.88232914  0.19163027  0.78161903     0.08000
H3583       H  0.85461913  0.16535486  0.76319933     0.08000
H3584       H  0.85154284  0.18968846  0.78312338     0.04800
C3585       C  0.87960586  0.13753058  0.83251885    -0.21000
C3586       C  0.90140666  0.14048488  0.81702645    -0.07600
C3587       C  0.91989938  0.13713236  0.83323561     0.13300
C3588       C  0.91553616  0.12948330  0.86408390    -0.21100
C3589       C  0.89375087  0.12630862  0.87947502    -0.07600
C3590       C  0.87591821  0.13109747  0.86398096     0.13300
C3591       C  0.85294185  0.12903809  0.88057547    -0.24400
H3592       H  0.86555682  0.14029343  0.82001640     0.14500
H3593       H  0.92891680  0.12544415  0.87607620     0.14600
C3594       C  0.94395960  0.14096669  0.81789164    -0.24400
H3595       H  0.84030651  0.13230994  0.86480520     0.04800
H3596       H  0.85955912  0.14368396  0.89905834     0.08000
H3597       H  0.84146333  0.10973649  0.89118582     0.08000
H3598       H  0.95552074  0.16136413  0.81062778     0.08000
H3599       H  0.93903354  0.12815240  0.79761743     0.08000
H3600       H  0.95592949  0.13674328  0.83368471     0.04800
C3601       C  0.87377158  0.09126087  0.61389921    -0.21000
C3602       C  0.87336984  0.11185936  0.62863527    -0.07600
C3603       C  0.86457200  0.12633190  0.61209852     0.13300
C3604       C  0.85719928  0.12020261  0.58107751    -0.21100
C3605       C  0.85828088  0.09994914  0.56639845    -0.07600
C3606       C  0.86671111  0.08534160  0.58307403     0.13300
C3607       C  0.86989537  0.06448685  0.56803119    -0.24400
H3608       H  0.88047061  0.08007483  0.62637361     0.14500
H3609       H  0.85100900  0.13154363  0.56802273     0.14600
C3610       C  0.86395351  0.14882719  0.62641026    -0.24400
H3611       H  0.87829831  0.05620003  0.58400221     0.04800
H3612       H  0.88286840  0.07242203  0.54776354     0.08000
H3613       H  0.85091969  0.04862933  0.56064727     0.08000
H3614       H  0.88351171  0.16333588  0.63422004     0.08000
H3615       H  0.85054311  0.14216542  0.64632376     0.08000
H3616       H  0.85728922  0.15836274  0.60983505     0.04800
C3617       C  0.00396387  0.21036884  0.65684947    -0.21000
C3618       C  0.97794989  0.19683683  0.64866749    -0.07600
C3619       C  0.97071855  0.19568933  0.61758660     0.13300
C3620       C  0.98987889  0.20478731  0.59493766    -0.21100
C3621       C  0.01559135  0.21394214  0.60309782    -0.07600
C3622       C  0.02302367  0.21836310  0.63431167     0.13300
C3623       C  0.05077190  0.23019351  0.64403191    -0.24400
H3624       H  0.00932708  0.21190257  0.68091653     0.14500
H3625       H  0.98446556  0.20218985  0.57084755     0.14600
C3626       C  0.94294105  0.18426544  0.60833499    -0.24400
H3627       H  0.05304143  0.23376579  0.66921583     0.04800
H3628       H  0.06252305  0.24887345  0.63201829     0.08000
H3629       H  0.05833474  0.21718836  0.63859644     0.08000
H3630       H  0.93435939  0.19441863  0.62048538     0.08000
H3631       H  0.93190488  0.16350044  0.61416001     0.08000
H3632       H  0.94098467  0.18617669  0.58318034     0.04800
C3633       C  0.84698401  0.96554108  0.50035697    -0.21000
C3634       C  0.82885918  0.95518166  0.52436492    -0.07600
C3635       C  0.82121309  0.97133082  0.53924186     0.13300
C3636       C  0.82988914  0.99614588  0.52803527    -0.21100
C3637       C  0.84638917  0.00594298  0.50265489    -0.07600
C3638       C  0.85879069  0.99239939  0.99569574     0.13300
C3639       C  0.87948620  0.00233710  0.97144600    -0.24400
H3640       H  0.85571321  0.95490943  0.99768252     0.14500
H3641       H  0.82278212  0.00768590  0.53869707     0.14600
C3642       C  0.80344929  0.96325569  0.56675712    -0.24400
H3643       H  0.88517746  0.98789533  0.96553491     0.04800
H3644       H  0.89680333  0.01981938  0.97997536     0.08000
H3645       H  0.87249643  0.00707884  0.95013286     0.08000
H3646       H  0.79828370  0.94415974  0.57596607     0.08000
H3647       H  0.78547490  0.96311733  0.56044732     0.08000
H3648       H  0.81296141  0.97719549  0.58573437     0.04800
C3649       C  0.79733572  0.90169340  0.89935788    -0.21000
C3650       C  0.77794644  0.88787089  0.87763531    -0.07600
C3651       C  0.75450922  0.86635124  0.88770811     0.13300
C3652       C  0.75109232  0.85976654  0.91920376    -0.21100
C3653       C  0.77009244  0.87461424  0.94072880    -0.07600
C3654       C  0.79358649  0.89561405  0.93067066     0.13300
C3655       C  0.81482605  0.91180337  0.95295405    -0.24400
H3656       H  0.81542082  0.91797625  0.89194694     0.14500
H3657       H  0.73320865  0.84355060  0.92723993     0.14600
C3658       C  0.73263837  0.85088807  0.86593286    -0.24400
H3659       H  0.83254323  0.92633953  0.94095258     0.04800
H3660       H  0.81973623  0.89941093  0.96702513     0.08000
H3661       H  0.80848865  0.92227574  0.96831108     0.08000
H3662       H  0.73872746  0.84175888  0.84819782     0.08000
H3663       H  0.72649494  0.86356664  0.85472259     0.08000
H3664       H  0.71567823  0.83531292  0.87807150     0.04800
C3665       C  0.74882880  0.88645375  0.64028057    -0.21000
C3666       C  0.77360724  0.89949650  0.62722938    -0.07600
C3667       C  0.79457497  0.91754550  0.64552437     0.13300
C3668       C  0.78990669  0.92205685  0.67567856    -0.21100
C3669       C  0.76545439  0.90848102  0.68875446    -0.07600
C3670       C  0.74460869  0.89038384  0.67110065     0.13300
C3671       C  0.71801716  0.87541946  0.68464672    -0.24400
H3672       H  0.73283332  0.87245036  0.62669538     0.14500
H3673       H  0.80583610  0.93533912  0.68992626     0.14600
C3674       C  0.82219047  0.93183210  0.63453424    -0.24400
H3675       H  0.70374862  0.86273954  0.66730840     0.04800
H3676       H  0.71192736  0.88888363  0.69346509     0.08000
H3677       H  0.71789674  0.86310424  0.70380203     0.08000
H3678       H  0.82410805  0.94295630  0.61336985     0.08000
H3679       H  0.82909014  0.91808398  0.63029070     0.08000
H3680       H  0.83529141  0.94575084  0.65190565     0.04800
C3681       C  0.50254705  0.83124347  0.55264008    -0.21000
C3682       C  0.48347627  0.82324840  0.57546218    -0.07600
C3683       C  0.47348166  0.79834367  0.58850632     0.13300
C3684       C  0.48431249  0.78308630  0.58007493    -0.21100
C3685       C  0.50504403  0.79240038  0.55942175    -0.07600
C3686       C  0.51366932  0.81638944  0.54480787     0.13300
C3687       C  0.53522619  0.82683185  0.52151299    -0.24400
H3688       H  0.51001112  0.85009746  0.54222917     0.14500
H3689       H  0.47759740  0.76451327  0.59091327     0.14600
C3690       C  0.45267895  0.78841601  0.61265177    -0.24400
H3691       H  0.53905520  0.84554601  0.51176390     0.04800
H3692       H  0.53017954  0.81312400  0.50222941     0.08000
H3693       H  0.55320351  0.82987925  0.53247079     0.08000
H3694       H  0.43516617  0.78758825  0.60304663     0.08000
H3695       H  0.45927290  0.80121392  0.63302929     0.08000
H3696       H  0.44743132  0.76876870  0.62051623     0.04800
C3697       C  0.65415850  0.78287149  0.56589464    -0.21000
C3698       C  0.63931365  0.78564152  0.54268118    -0.07600
C3699       C  0.65202887  0.80043728  0.51617261     0.13300
C3700       C  0.67895140  0.81315032  0.51447181    -0.21100
C3701       C  0.69379626  0.81152702  0.53830299    -0.07600
C3702       C  0.68127778  0.79576087  0.56407582     0.13300
C3703       C  0.69650710  0.79362410  0.59028302    -0.24400
H3704       H  0.64459871  0.77150164  0.58616469     0.14500
H3705       H  0.68863095  0.82503661  0.49454953     0.14600
C3706       C  0.63749195  0.80296099  0.48936605    -0.24400
H3707       H  0.68380292  0.78109676  0.60904597     0.04800
H3708       H  0.70946284  0.81297556  0.60001108     0.08000
H3709       H  0.70819618  0.78526521  0.58189700     0.08000
H3710       H  0.62826950  0.81419344  0.49631070     0.08000
H3711       H  0.62220628  0.78482820  0.98069834     0.08000
H3712       H  0.64981337  0.81481285  0.96990632     0.04800
C3713       C  0.58441970  0.77961883  0.66396205    -0.21000
C3714       C  0.56304101  0.76619452  0.64482135    -0.07600
C3715       C  0.53803439  0.75663568  0.65676260     0.13300
C3716       C  0.53495994  0.76127956  0.68753977    -0.21100
C3717       C  0.55623345  0.77493236  0.70685653    -0.07600
C3718       C  0.58132483  0.78390495  0.69509719     0.13300
C3719       C  0.60485167  0.79885859  0.71476070    -0.24400
H3720       H  0.60351320  0.78681335  0.65447412     0.14500
H3721       H  0.51576850  0.75444861  0.69653794     0.14600
C3722       C  0.51455325  0.74223449  0.63677232    -0.24400
H3723       H  0.62283867  0.80504084  0.70150829     0.04800
H3724       H  0.60460075  0.78673084  0.73424169     0.08000
H3725       H  0.60532298  0.81635523  0.72379435     0.08000
H3726       H  0.51335781  0.72429522  0.62821689     0.08000
H3727       H  0.51566165  0.75440551  0.61688469     0.08000
H3728       H  0.49654745  0.73683524  0.64960227     0.04800
C3729       C  0.58091750  0.80407205  0.94388371    -0.21000
C3730       C  0.55595573  0.79045370  0.95610779    -0.07600
C3731       C  0.53494731  0.78717733  0.93800304     0.13300
C3732       C  0.53942655  0.79692073  0.90788181    -0.21100
C3733       C  0.56415397  0.80898649  0.89506488    -0.07600
C3734       C  0.58523923  0.81301902  0.91331459     0.13300
C3735       C  0.61221297  0.82691069  0.90065962    -0.24400
H3736       H  0.59695016  0.80680487  0.95787128     0.14500
H3737       H  0.52333803  0.79396740  0.89367655     0.14600
C3738       C  0.50777720  0.77351623  0.95022382    -0.24400
H3739       H  0.62652511  0.82919292  0.91837546     0.04800
H3740       H  0.61697316  0.84634888  0.89250693     0.08000
H3741       H  0.61394562  0.81598357  0.88116383     0.08000
H3742       H  0.50672677  0.78272760  0.97186118     0.08000
H3743       H  0.50132752  0.75296753  0.95465221     0.08000
H3744       H  0.49411999  0.77419168  0.93354135     0.04800
C3745       C  0.53534214  0.67576305  0.92866997    -0.21000
C3746       C  0.51883678  0.65004751  0.93725057    -0.07600
C3747       C  0.51637508  0.64287449  0.96864265     0.13300
C3748       C  0.52867952  0.66204193  0.99087223    -0.21100
C3749       C  0.54260255  0.68801646  0.98237400    -0.07600
C3750       C  0.54685144  0.69498561  0.95102573     0.13300
C3751       C  0.56202276  0.72280626  0.94131561    -0.24400
H3752       H  0.53729254  0.68114963  0.90454779     0.14500
H3753       H  0.52780985  0.65712941  0.51497282     0.14600
C3754       C  0.50021832  0.61525956  0.97889795    -0.24400
H3755       H  0.56365552  0.72490809  0.91586966     0.04800
H3756       H  0.58170407  0.73170463  0.95105600     0.08000
H3757       H  0.55248385  0.73336438  0.94976838     0.08000
H3758       H  0.50672469  0.60319427  0.96697175     0.08000
H3759       H  0.47969956  0.60800455  0.97365908     0.08000
H3760       H  0.50170998  0.61311188  0.00410148     0.04800
C3761       C  0.49027899  0.68898810  0.85660368    -0.21000
C3762       C  0.48460354  0.67022485  0.83391624    -0.07600
C3763       C  0.48715885  0.67750130  0.80254438     0.13300
C3764       C  0.49609080  0.70347400  0.79478095    -0.21100
C3765       C  0.50326361  0.72238805  0.81762690    -0.07600
C3766       C  0.50000962  0.71495827  0.84889622     0.13300
C3767       C  0.50713599  0.73447194  0.87422292    -0.24400
H3768       H  0.48840476  0.68353153  0.88069718     0.14500
H3769       H  0.49885206  0.70929194  0.77078612     0.14600
C3770       C  0.48050863  0.65803748  0.77730867    -0.24400
H3771       H  0.50252492  0.72529516  0.89736253     0.04800
H3772       H  0.49638265  0.74491993  0.87129959     0.08000
H3773       H  0.52807411  0.74842755  0.87356621     0.08000
H3774       H  0.46032072  0.64224234  0.78007883     0.08000
H3775       H  0.49355418  0.64996904  0.77815595     0.08000
H3776       H  0.48248025  0.66677950  0.75417385     0.04800
C3777       C  0.50690009  0.53140958  0.89399876    -0.21000
C3778       C  0.51845340  0.55432069  0.87694806    -0.07600
C3779       C  0.54352606  0.56349987  0.86511987     0.13300
C3780       C  0.55592613  0.54899978  0.86982730    -0.21100
C3781       C  0.54381902  0.52535294  0.88583985    -0.07600
C3782       C  0.51896413  0.51682954  0.89861697     0.13300
C3783       C  0.50453034  0.49235825  0.91724301    -0.24400
H3784       H  0.48782121  0.52453259  0.90341270     0.14500
H3785       H  0.57486544  0.55581091  0.86008671     0.14600
C3786       C  0.55676166  0.58786781  0.84634682    -0.24400
H3787       H  0.48641272  0.49001675  0.92709557     0.04800
H3788       H  0.51652342  0.49257325  0.93676242     0.08000
H3789       H  0.49911693  0.47539480  0.90242708     0.08000
H3790       H  0.55977846  0.60443386  0.86062686     0.08000
H3791       H  0.54481293  0.58625557  0.82605130     0.08000
H3792       H  0.57583960  0.59178230  0.83789746     0.04800
C3793       C  0.66638890  0.54282713  0.82240668    -0.21000
C3794       C  0.64095380  0.52627164  0.81306875    -0.07600
C3795       C  0.63513291  0.52275981  0.78132637     0.13300
C3796       C  0.65528958  0.53371644  0.75989288    -0.21100
C3797       C  0.68101339  0.54690094  0.76955228    -0.07600
C3798       C  0.68661394  0.55287476  0.80100271     0.13300
C3799       C  0.71375086  0.56972951  0.81204445    -0.24400
H3800       H  0.67074051  0.54605592  0.84675726     0.14500
H3801       H  0.65101184  0.52985543  0.73559541     0.14600
C3802       C  0.60786985  0.50709452  0.76993077    -0.24400
H3803       H  0.71448112  0.57308490  0.83724588     0.04800
H3804       H  0.72211041  0.58866914  0.80029892     0.08000
H3805       H  0.72560786  0.56074287  0.80716225     0.08000
H3806       H  0.59609927  0.51491771  0.77958987     0.08000
H3807       H  0.59944991  0.48663592  0.77675643     0.08000
H3808       H  0.60687091  0.50769428  0.74442988     0.04800
C3809       C  0.79298130  0.80762570  0.66156698    -0.21000
C3810       C  0.80552157  0.79390228  0.65465135    -0.07600
C3811       C  0.80933721  0.78956728  0.62369165     0.13300
C3812       C  0.80193334  0.80054845  0.60023927    -0.21100
C3813       C  0.79170938  0.81642319  0.60724866    -0.07600
C3814       C  0.78633206  0.81933300  0.63818437     0.13300
C3815       C  0.77447585  0.83547187  0.64671254    -0.24400
H3816       H  0.79065527  0.81127602  0.68545860     0.14500
H3817       H  0.80612028  0.79842146  0.57648837     0.14600
C3818       C  0.82272363  0.77493296  0.61487702    -0.24400
H3819       H  0.77041519  0.83447476  0.67178454     0.04800
H3820       H  0.75607048  0.82852208  0.63419844     0.08000
H3821       H  0.78771716  0.85595401  0.64083178     0.08000
H3822       H  0.82726733  0.76657946  0.63508328     0.08000
H3823       H  0.84094863  0.78794559  0.60264020     0.08000
H3824       H  0.81015180  0.75885083  0.59936927     0.04800
C3825       C  0.80178337  0.68880187  0.68409906    -0.21000
C3826       C  0.80019966  0.69784331  0.71328090    -0.07600
C3827       C  0.78303233  0.68013856  0.73533905     0.13300
C3828       C  0.76935570  0.65366599  0.72827887    -0.21100
C3829       C  0.77242054  0.64461977  0.69972045    -0.07600
C3830       C  0.78804886  0.66256923  0.67701273     0.13300
C3831       C  0.78988631  0.65419446  0.64498292    -0.24400
H3832       H  0.81436134  0.70238056  0.66684320     0.14500
H3833       H  0.75732915  0.63987893  0.74567534     0.14600
C3834       C  0.78017649  0.68879798  0.76681302    -0.24400
H3835       H  0.80205521  0.67080893  0.62972837     0.04800
H3836       H  0.77029917  0.64378671  0.63499443     0.08000
H3837       H  0.79839784  0.64153337  0.64540278     0.08000
H3838       H  0.77256528  0.70218780  0.76473989     0.08000
H3839       H  0.79911963  0.69866551  0.77842527     0.08000
H3840       H  0.76670232  0.67235199  0.78151294     0.04800
C3841       C  0.84046718  0.86390850  0.72710395    -0.21000
C3842       C  0.84870078  0.85357856  0.75052425    -0.07600
C3843       C  0.84854027  0.86087353  0.78129944     0.13300
C3844       C  0.83955329  0.87793217  0.78807436    -0.21100
C3845       C  0.82962178  0.88684584  0.76485493    -0.07600
C3846       C  0.83057912  0.88015227  0.73389294     0.13300
C3847       C  0.82077345  0.88970486  0.70801022    -0.24400
H3848       H  0.84023899  0.85789293  0.70353445     0.14500
H3849       H  0.83849980  0.88279585  0.81183731     0.14600
C3850       C  0.85668701  0.84969817  0.80699943    -0.24400
H3851       H  0.82408539  0.88358818  0.68517605     0.04800
H3852       H  0.83086385  0.91103955  0.70826498     0.08000
H3853       H  0.79978831  0.88195224  0.71048429     0.08000
H3854       H  0.87687417  0.85447025  0.80320379     0.08000
H3855       H  0.84400280  0.82848865  0.80757837     0.08000
H3856       H  0.85548296  0.85739390  0.82976718     0.04800
C3857       C  0.86627360  0.83606453  0.46697917    -0.21000
C3858       C  0.87910421  0.83498565  0.98949678    -0.07600
C3859       C  0.87466814  0.83799871  0.02068701     0.13300
C3860       C  0.85867985  0.84800178  0.02799939    -0.21100
C3861       C  0.84636170  0.85434341  0.00492926    -0.07600
C3862       C  0.84990212  0.84592214  0.47330969     0.13300
C3863       C  0.83853712  0.85331213  0.44702276    -0.24400
H3864       H  0.87063357  0.83414367  0.44337696     0.14500
H3865       H  0.85447830  0.84932891  0.05198677     0.14600
C3866       C  0.88644365  0.83029668  0.04629622    -0.24400
H3867       H  0.84522762  0.85033293  0.42437737     0.04800
H3868       H  0.84436559  0.87393228  0.44885699     0.08000
H3869       H  0.81725970  0.84143513  0.44747067     0.08000
H3870       H  0.90767983  0.84068082  0.04368204     0.08000
H3871       H  0.87903474  0.80927937  0.04571326     0.08000
H3872       H  0.88181798  0.83494680  0.06930985     0.04800
C3873       C  0.91201280  0.79037179  0.57994919    -0.21000
C3874       C  0.89850209  0.76530101  0.56837806    -0.07600
C3875       C  0.88047646  0.74515852  0.58726488     0.13300
C3876       C  0.87653213  0.75069491  0.61755932    -0.21100
C3877       C  0.88930767  0.77604750  0.62865721    -0.07600
C3878       C  0.90716042  0.79616975  0.60948632     0.13300
C3879       C  0.92114855  0.82382338  0.61983262    -0.24400
H3880       H  0.92558419  0.80578717  0.56512166     0.14500
H3881       H  0.86275973  0.73534393  0.63227797     0.14600
C3882       C  0.86570839  0.71794424  0.57567109    -0.24400
H3883       H  0.93534916  0.83668252  0.60239851     0.04800
H3884       H  0.93162921  0.82570044  0.64155744     0.08000
H3885       H  0.90726203  0.83064260  0.62343274     0.08000
H3886       H  0.87931556  0.71158988  0.56818978     0.08000
H3887       H  0.85346370  0.71677731  0.55592633     0.08000
H3888       H  0.85299078  0.70446546  0.59378192     0.04800
C3889       C  0.87103605  0.75772803  0.86684110    -0.21000
C3890       C  0.88111813  0.78258995  0.87879791    -0.07600
C3891       C  0.88198409  0.80232649  0.86033662     0.13300
C3892       C  0.87246333  0.79664435  0.83027546    -0.21100
C3893       C  0.86260842  0.77188349  0.81800012    -0.07600
C3894       C  0.86215001  0.75220095  0.83636629     0.13300
C3895       C  0.85203080  0.72541036  0.82421797    -0.24400
H3896       H  0.87074055  0.74277359  0.88119604     0.14500
H3897       H  0.87343622  0.81184492  0.81586421     0.14600
C3898       C  0.89260482  0.82924915  0.87241319    -0.24400
H3899       H  0.85232399  0.71229479  0.84210120     0.04800
H3900       H  0.86403690  0.72569580  0.80464241     0.08000
H3901       H  0.83189019  0.71752646  0.81652113     0.08000
H3902       H  0.91317938  0.83750785  0.87847200     0.08000
H3903       H  0.88164992  0.82885881  0.89316008     0.08000
H3904       H  0.89119159  0.84214129  0.85512119     0.04800
C3905       C  0.70637989  0.50271564  0.90180894    -0.21000
C3906       C  0.71338587  0.50887604  0.93261133    -0.07600
C3907       C  0.69441236  0.50503773  0.95457092     0.13300
C3908       C  0.66899250  0.49624092  0.94484233    -0.21100
C3909       C  0.66204133  0.49088358  0.91370576    -0.07600
C3910       C  0.68099294  0.49351932  0.89203351     0.13300
C3911       C  0.67521945  0.48820980  0.85818366    -0.24400
H3912       H  0.72114884  0.50601597  0.88509707     0.14500
H3913       H  0.65465200  0.49426261  0.96147317     0.14600
C3914       C  0.70129357  0.51161233  0.98795208    -0.24400
H3915       H  0.69264483  0.49259516  0.84464320     0.04800
H3916       H  0.66760497  0.50027415  0.84887452     0.08000
H3917       H  0.66097076  0.46758079  0.85468591     0.08000
H3918       H  0.71582471  0.53231708  0.99016066     0.08000
H3919       H  0.70930154  0.49990226  0.99742483     0.08000
H3920       H  0.68427244  0.50774137  0.00201291     0.04800
C3921       C  0.86857872  0.65954168  0.93657269    -0.21000
C3922       C  0.85000360  0.64401516  0.95864255    -0.07600
C3923       C  0.84561323  0.65603895  0.98418462     0.13300
C3924       C  0.85962303  0.68296174  0.98671006    -0.21100
C3925       C  0.87762505  0.69828986  0.96434472    -0.07600
C3926       C  0.88217411  0.68655955  0.93896077     0.13300
C3927       C  0.90094589  0.70263278  0.91418263    -0.24400
H3928       H  0.87183326  0.65056967  0.91680416     0.14500
H3929       H  0.85621302  0.69222050  0.00607296     0.14600
C3930       C  0.82650423  0.64078086  0.00920403    -0.24400
H3931       H  0.90226918  0.69054817  0.89578842     0.04800
H3932       H  0.92034628  0.71455818  0.92431984     0.08000
H3933       H  0.89469800  0.71543707  0.90351968     0.08000
H3934       H  0.84509826  0.61990860  0.52025549     0.08000
H3935       H  0.80665933  0.63115769  0.99992680     0.08000
H3936       H  0.84347048  0.64613490  0.53772026     0.04800
C3937       C  0.81309456  0.45058899  0.91428548    -0.21000
C3938       C  0.83123415  0.45828213  0.89039584    -0.07600
C3939       C  0.83863819  0.48175222  0.87477708     0.13300
C3940       C  0.82962183  0.49786718  0.88516344    -0.21100
C3941       C  0.81311995  0.49128879  0.91055358    -0.07600
C3942       C  0.80406161  0.46690926  0.92475180     0.13300
C3943       C  0.78645188  0.45878494  0.95230185    -0.24400
H3944       H  0.80732476  0.43260007  0.92614189     0.14500
H3945       H  0.83652647  0.51638879  0.87419408     0.14600
C3946       C  0.85627336  0.49016822  0.84711998    -0.24400
H3947       H  0.78195383  0.43956971  0.96103716     0.04800
H3948       H  0.76805059  0.45770528  0.94594281     0.08000
H3949       H  0.79571622  0.47283585  0.97122650     0.08000
H3950       H  0.84842700  0.47473257  0.82958316     0.08000
H3951       H  0.87587968  0.49461600  0.85375944     0.08000
H3952       H  0.85809997  0.50779079  0.83628984     0.04800
C3953       C  0.79730920  0.59537526  0.83891295    -0.21000
C3954       C  0.80429977  0.57786564  0.85076482    -0.07600
C3955       C  0.80672161  0.56087098  0.83012772     0.13300
C3956       C  0.80027820  0.56059808  0.79916697    -0.21100
C3957       C  0.79178008  0.57687565  0.78790905    -0.07600
C3958       C  0.79141951  0.59533976  0.80751833     0.13300
C3959       C  0.78394334  0.61425280  0.79558716    -0.24400
H3960       H  0.79598162  0.60880147  0.85434620     0.14500
H3961       H  0.80069579  0.54664093  0.78374009     0.14600
C3962       C  0.81462663  0.54181170  0.84040604    -0.24400
H3963       H  0.78351461  0.62664171  0.81422640     0.04800
H3964       H  0.76465932  0.60391318  0.78487570     0.08000
H3965       H  0.79805419  0.62683964  0.77793277     0.08000
H3966       H  0.81435797  0.52951202  0.82120446     0.08000
H3967       H  0.80120819  0.52888451  0.85840602     0.08000
H3968       H  0.83457521  0.55222846  0.84936656     0.04800
C3969       C  0.75999728  0.57478558  0.54727470    -0.21000
C3970       C  0.76246601  0.55318448  0.54078227    -0.07600
C3971       C  0.75984099  0.53623078  0.56526277     0.13300
C3972       C  0.75725296  0.54266791  0.59538052    -0.21100
C3973       C  0.75655178  0.56505903  0.60196966    -0.07600
C3974       C  0.75692828  0.58084663  0.57763423     0.13300
C3975       C  0.75576245  0.60483569  0.58366012    -0.24400
H3976       H  0.76154633  0.58760186  0.52872556     0.14500
H3977       H  0.75603087  0.53016986  0.61420158     0.14600
C3978       C  0.75951040  0.51116426  0.56042439    -0.24400
H3979       H  0.75632183  0.61497169  0.56198621     0.04800
H3980       H  0.77262774  0.61801514  0.59762569     0.08000
H3981       H  0.73774736  0.60005356  0.59605842     0.08000
H3982       H  0.77872529  0.51484122  0.55296714     0.08000
H3983       H  0.74474766  0.49939246  0.54304520     0.08000
H3984       H  0.75469809  0.49957932  0.58193177     0.04800
C3985       C  0.17825205  0.53153292  0.56316670    -0.21000
C3986       C  0.17935288  0.51497038  0.58535819    -0.07600
C3987       C  0.17340114  0.51711162  0.61635858     0.13300
C3988       C  0.16511074  0.53465067  0.62390154    -0.21100
C3989       C  0.16192324  0.54947500  0.60109078    -0.07600
C3990       C  0.16915384  0.54831588  0.57049980     0.13300
C3991       C  0.16667324  0.56432221  0.54536735    -0.24400
H3992       H  0.18285178  0.53009842  0.53938221     0.14500
H3993       H  0.15948565  0.53557020  0.64737195     0.14600
C3994       C  0.17562622  0.50097164  0.64147022    -0.24400
H3995       H  0.17404658  0.56180332  0.52296587     0.04800
H3996       H  0.17778589  0.58499192  0.55158187     0.08000
H3997       H  0.14618800  0.55860458  0.54216169     0.08000
H3998       H  0.19542139  0.50398732  0.64178878     0.08000
H3999       H  0.16165066  0.48032439  0.63767081     0.08000
H4000       H  0.17157407  0.50614058  0.66449648     0.04800
C4001       C  0.12725348  0.58682323  0.50401100    -0.21000
C4002       C  0.10243758  0.57548097  0.51647047    -0.07600
C4003       C  0.08104522  0.56011731  0.49772274     0.13300
C4004       C  0.07962803  0.55410896  0.96866148    -0.21100
C4005       C  0.10447009  0.56487328  0.95621172    -0.07600
C4006       C  0.12581687  0.58169954  0.97441864     0.13300
C4007       C  0.15290014  0.59472344  0.96198189    -0.24400
H4008       H  0.14355399  0.59861824  0.51861239     0.14500
H4009       H  0.06336375  0.54147607  0.95464828     0.14600
C4010       C  0.05405634  0.54838860  0.51007024    -0.24400
H4011       H  0.16692324  0.60844906  0.97881936     0.04800
H4012       H  0.15415133  0.60562384  0.94076120     0.08000
H4013       H  0.15869163  0.58027107  0.95677346     0.08000
H4014       H  0.05059412  0.56381252  0.51853792     0.08000
H4015       H  0.05124267  0.53500338  0.52929358     0.08000
H4016       H  0.03955076  0.53740060  0.49209183     0.04800
C4017       C  0.07874182  0.53788623  0.75421631    -0.21000
C4018       C  0.09385288  0.52849374  0.76739511    -0.07600
C4019       C  0.11289033  0.52751958  0.74884299     0.13300
C4020       C  0.11645243  0.53626730  0.71824436    -0.21100
C4021       C  0.10174611  0.54609295  0.70568475    -0.07600
C4022       C  0.08248698  0.54667061  0.72358582     0.13300
C4023       C  0.06612929  0.55684652  0.71034754    -0.24400
H4024       H  0.06423775  0.53881448  0.76809187     0.14500
H4025       H  0.13148345  0.53635965  0.70431265     0.14600
C4026       C  0.13052880  0.51858300  0.76123232    -0.24400
H4027       H  0.05211248  0.55627675  0.72745466     0.04800
H4028       H  0.05528438  0.54501804  0.69028498     0.08000
H4029       H  0.07843740  0.57703449  0.70263199     0.08000
H4030       H  0.11907739  0.49803494  0.76799002     0.08000
H4031       H  0.14133759  0.53047538  0.78130875     0.08000
H4032       H  0.14482790  0.52022456  0.74382197     0.04800
C4033       C  0.82639983  0.37069839  0.63270926    -0.21000
C4034       C  0.83423348  0.38870388  0.65668223    -0.07600
C4035       C  0.83202182  0.38009086  0.68739172     0.13300
C4036       C  0.82278324  0.35389218  0.69333757    -0.21100
C4037       C  0.81645798  0.33606686  0.66933376    -0.07600
C4038       C  0.81794266  0.34456515  0.63859858     0.13300
C4039       C  0.81048183  0.32623303  0.61202132    -0.24400
H4040       H  0.82833032  0.37739737  0.60911711     0.14500
H4041       H  0.82179322  0.34752433  0.71694733     0.14600
C4042       C  0.83934254  0.39845382  0.71395254    -0.24400
H4043       H  0.81208721  0.33596426  0.58966231     0.04800
H4044       H  0.79023872  0.31084844  0.61501190     0.08000
H4045       H  0.82311084  0.31770091  0.61090540     0.08000
H4046       H  0.82732182  0.40767118  0.71345800     0.08000
H4047       H  0.85996910  0.41338080  0.71248354     0.08000
H4048       H  0.83607870  0.38844258  0.73645400     0.04800
C4049       C  0.86472985  0.54350655  0.56734235    -0.21000
C4050       C  0.87327043  0.52606375  0.56127591    -0.07600
C4051       C  0.87294161  0.51790622  0.53074146     0.13300
C4052       C  0.86200655  0.52553316  0.50743922    -0.21100
C4053       C  0.85150495  0.54117550  0.51402566    -0.07600
C4054       C  0.85378300  0.55117079  0.54391993     0.13300
C4055       C  0.84335543  0.56868379  0.55135089    -0.24400
H4056       H  0.86473401  0.54949548  0.59085971     0.14500
H4057       H  0.85665274  0.51658022  0.98409841     0.14600
C4058       C  0.88278158  0.49997036  0.52305118    -0.24400
H4059       H  0.84645612  0.57460913  0.57588291     0.04800
H4060       H  0.82239827  0.55879160  0.54667171     0.08000
H4061       H  0.85324911  0.58624251  0.53684765     0.08000
H4062       H  0.87092820  0.48145006  0.53503125     0.08000
H4063       H  0.90310202  0.50849960  0.53046400     0.08000
H4064       H  0.88177464  0.49602781  0.49797026     0.04800
C4065       C  0.92094914  0.47964791  0.74681729    -0.21000
C4066       C  0.90011832  0.47793287  0.73020868    -0.07600
C4067       C  0.87595011  0.46786234  0.74471533     0.13300
C4068       C  0.87320327  0.45998672  0.77543687    -0.21100
C4069       C  0.89383967  0.46148905  0.79238846    -0.07600
C4070       C  0.91819282  0.47175017  0.77789551     0.13300
C4071       C  0.94096192  0.47336481  0.79440210    -0.24400
H4072       H  0.93928484  0.48679207  0.73526046     0.14500
H4073       H  0.85441139  0.45195867  0.78606308     0.14600
C4074       C  0.85249621  0.46392326  0.72739157    -0.24400
H4075       H  0.95814249  0.48098353  0.77923678     0.04800
H4076       H  0.93627027  0.45392677  0.80227732     0.08000
H4077       H  0.94601264  0.48637548  0.81448658     0.08000
H4078       H  0.84981075  0.45248237  0.70631212     0.08000
H4079       H  0.85486467  0.48271377  0.72068238     0.08000
H4080       H  0.83472060  0.45373666  0.74149555     0.04800
C4081       C  0.86243651  0.43199226  0.52247011    -0.21000
C4082       C  0.88212919  0.43737030  0.54373844    -0.07600
C4083       C  0.90492594  0.43819224  0.53318262     0.13300
C4084       C  0.90784515  0.43521076  0.50156038    -0.21100
C4085       C  0.88653703  0.43102179  0.98104583    -0.07600
C4086       C  0.86198482  0.42436375  0.99238579     0.13300
C4087       C  0.83905471  0.41413724  0.97129198    -0.24400
H4088       H  0.84462889  0.43054796  0.53030060     0.14500
H4089       H  0.92599014  0.44447144  0.99225737     0.14600
C4090       C  0.92663633  0.44306489  0.55456064    -0.24400
H4091       H  0.82117915  0.40949142  0.98397184     0.04800
H4092       H  0.83611188  0.39633725  0.95993837     0.08000
H4093       H  0.84230250  0.42871709  0.95344785     0.08000
H4094       H  0.91975035  0.42768930  0.57233124     0.08000
H4095       H  0.93421697  0.46209564  0.56571420     0.08000
H4096       H  0.94283476  0.44315553  0.54211837     0.04800
C4097       C  0.98316656  0.54552453  0.60587538    -0.21000
C4098       C  0.97123663  0.52310544  0.62399395    -0.07600
C4099       C  0.98672644  0.51481215  0.63887436     0.13300
C4100       C  0.01353576  0.52893853  0.63527058    -0.21100
C4101       C  0.02582851  0.55127478  0.61681695    -0.07600
C4102       C  0.01017263  0.55950441  0.60167879     0.13300
C4103       C  0.02147988  0.58249830  0.58049529    -0.24400
H4104       H  0.97122143  0.55180713  0.59443369     0.14500
H4105       H  0.02495246  0.52217110  0.64698535     0.14600
C4106       C  0.97510890  0.49129994  0.65935100    -0.24400
H4107       H  0.00639545  0.58566123  0.57010116     0.04800
H4108       H  0.03202325  0.57954731  0.56141928     0.08000
H4109       H  0.03472745  0.60008231  0.59350292     0.08000
H4110       H  0.96244957  0.47392891  0.64567444     0.08000
H4111       H  0.96376796  0.49355574  0.67801391     0.08000
H4112       H  0.99004128  0.48816284  0.67024812     0.04800
C4113       C  0.79578496  0.48190317  0.66567110    -0.21000
C4114       C  0.82224752  0.49616308  0.67276920    -0.07600
C4115       C  0.83096142  0.51843507  0.69140876     0.13300
C4116       C  0.81357999  0.52618849  0.70086914    -0.21100
C4117       C  0.78777261  0.51342620  0.69150531    -0.07600
C4118       C  0.77851982  0.49040569  0.67451221     0.13300
C4119       C  0.75091931  0.47550568  0.66438086    -0.24400
H4120       H  0.78882691  0.46483663  0.65162113     0.14500
H4121       H  0.82066960  0.54343354  0.71465435     0.14600
C4122       C  0.85873415  0.53517089  0.70084381    -0.24400
H4123       H  0.74699969  0.45832676  0.65072355     0.04800
H4124       H  0.74629302  0.48789694  0.64985706     0.08000
H4125       H  0.73811302  0.46885001  0.68485962     0.08000
H4126       H  0.87077900  0.54521176  0.68046711     0.08000
H4127       H  0.86599518  0.52358698  0.71227178     0.08000
H4128       H  0.86125710  0.55034639  0.71734071     0.04800
C4129       C  0.00687093  0.80878891  0.91614474    -0.21000
C4130       C  0.98089283  0.79363196  0.90839801    -0.07600
C4131       C  0.97379007  0.78581960  0.87771741     0.13300
C4132       C  0.99290287  0.79493069  0.85488934    -0.21100
C4133       C  0.01860885  0.81252663  0.86216206    -0.07600
C4134       C  0.02590337  0.81857790  0.89330445     0.13300
C4135       C  0.05351032  0.83612093  0.90244604    -0.24400
H4136       H  0.01203831  0.81476127  0.93984976     0.14500
H4137       H  0.98739754  0.79035909  0.83097119     0.14600
C4138       C  0.94595355  0.76953861  0.86884795    -0.24400
H4139       H  0.05584957  0.83748497  0.92785656     0.04800
H4140       H  0.06036269  0.85580158  0.89357169     0.08000
H4141       H  0.06573755  0.82870967  0.89305899     0.08000
H4142       H  0.93530446  0.77965881  0.87463627     0.08000
H4143       H  0.93733297  0.75102190  0.88155905     0.08000
H4144       H  0.94369084  0.76531718  0.84380722     0.04800
C4145       C  0.98553988  0.82492059  0.73073007    -0.21000
C4146       C  0.99665213  0.84357831  0.75394205    -0.07600
C4147       C  0.98188632  0.85398445  0.76661705     0.13300
C4148       C  0.95638294  0.84449232  0.75676448    -0.21100
C4149       C  0.94516207  0.82472762  0.73516491    -0.07600
C4150       C  0.96005020  0.81528217  0.72141485     0.13300
C4151       C  0.94893609  0.79467925  0.69709378    -0.24400
H4152       H  0.99642743  0.81687258  0.72062079     0.14500
H4153       H  0.94471846  0.85162725  0.76703264     0.14600
C4154       C  0.99211968  0.87428170  0.79131392    -0.24400
H4155       H  0.96345839  0.79009271  0.68803021     0.04800
H4156       H  0.94178860  0.80123713  0.67752322     0.08000
H4157       H  0.93282706  0.77673651  0.70684879     0.08000
H4158       H  0.00969866  0.89167838  0.78293177     0.08000
H4159       H  0.99644533  0.86670816  0.81244357     0.08000
H4160       H  0.97797496  0.88023369  0.79779057     0.04800
C4161       C  0.11781927  0.77211317  0.79628750    -0.21000
C4162       C  0.14486957  0.78635812  0.79635557    -0.07600
C4163       C  0.15725089  0.81357487  0.79554179     0.13300
C4164       C  0.14241553  0.82550747  0.79381972    -0.21100
C4165       C  0.11539407  0.81142931  0.79274350    -0.07600
C4166       C  0.10290661  0.78423427  0.79442625     0.13300
C4167       C  0.07405791  0.76778511  0.79391336    -0.24400
H4168       H  0.10825959  0.75131277  0.79736897     0.14500
H4169       H  0.15229665  0.84633146  0.79323050     0.14600
C4170       C  0.18610675  0.83058804  0.79734487    -0.24400
H4171       H  0.06771835  0.74697209  0.79510570     0.04800
H4172       H  0.06642227  0.77124183  0.77226186     0.08000
H4173       H  0.06568265  0.77237540  0.81402217     0.08000
H4174       H  0.19531746  0.82796244  0.77659404     0.08000
H4175       H  0.19344331  0.82596760  0.81845536     0.08000
H4176       H  0.19205733  0.85130758  0.79836491     0.04800
C4177       C  0.15995576  0.63219845  0.86866029    -0.21000
C4178       C  0.15710188  0.61406381  0.84653500    -0.07600
C4179       C  0.16596427  0.62220537  0.81623457     0.13300
C4180       C  0.17703976  0.64843745  0.80858608    -0.21100
C4181       C  0.17805819  0.66629147  0.83018654    -0.07600
C4182       C  0.16978938  0.65810817  0.86068474     0.13300
C4183       C  0.17065746  0.67653398  0.88463749    -0.24400
H4184       H  0.15280962  0.62573420  0.89178645     0.14500
H4185       H  0.18295299  0.65464993  0.78504525     0.14600
C4186       C  0.16291210  0.60309106  0.79187862    -0.24400
H4187       H  0.16432982  0.66719458  0.90757069     0.04800
H4188       H  0.15771505  0.68391304  0.87794104     0.08000
H4189       H  0.19065202  0.69279017  0.88679288     0.08000
H4190       H  0.14221974  0.58893482  0.78851113     0.08000
H4191       H  0.17305231  0.59275128  0.79910122     0.08000
H4192       H  0.17098937  0.61263854  0.76941640     0.04800
C4193       C  0.11382252  0.64023006  0.71365961    -0.21000
C4194       C  0.11762165  0.64915408  0.68321292    -0.07600
C4195       C  0.12763113  0.67559067  0.67732683     0.13300
C4196       C  0.13587013  0.69283950  0.70212813    -0.21100
C4197       C  0.13438139  0.68411063  0.73246077    -0.07600
C4198       C  0.12199734  0.65743524  0.73840430     0.13300
C4199       C  0.11919812  0.64725610  0.77074873    -0.24400
H4200       H  0.10649817  0.61997832  0.71804365     0.14500
H4201       H  0.14557090  0.71327053  0.69755084     0.14600
C4202       C  0.13164546  0.68577322  0.64484208    -0.24400
H4203       H  0.10904361  0.62590756  0.77137424     0.04800
H4204       H  0.10809730  0.65374773  0.78482052     0.08000
H4205       H  0.13841011  0.65449939  0.78110607     0.08000
H4206       H  0.11298040  0.67661679  0.63251202     0.08000
H4207       H  0.14520038  0.68140543  0.63256232     0.08000
H4208       H  0.13973218  0.70693410  0.64428563     0.04800
C4209       C  0.19598174  0.68731703  0.60972206    -0.21000
C4210       C  0.18275179  0.66836432  0.58734263    -0.07600
C4211       C  0.18727696  0.67519340  0.55591541     0.13300
C4212       C  0.20369543  0.70105324  0.54758693    -0.21100
C4213       C  0.21533100  0.72030591  0.56993718    -0.07600
C4214       C  0.21205159  0.71329302  0.60136031     0.13300
C4215       C  0.22450382  0.73339568  0.62600149    -0.24400
H4216       H  0.19231116  0.68207018  0.63386303     0.14500
H4217       H  0.20636569  0.70646532  0.52353514     0.14600
C4218       C  0.17425417  0.65529115  0.53123084    -0.24400
H4219       H  0.22010327  0.72472432  0.64941446     0.04800
H4220       H  0.21744804  0.74727270  0.62457658     0.08000
H4221       H  0.24568837  0.74388670  0.62282145     0.08000
H4222       H  0.15307321  0.64634329  0.53330127     0.08000
H4223       H  0.17969411  0.64023274  0.53374881     0.08000
H4224       H  0.17996682  0.66377874  0.50780538     0.04800
C4225       C  0.37703562  0.83763502  0.56595327    -0.21000
C4226       C  0.38412875  0.84263833  0.59694274    -0.07600
C4227       C  0.36495985  0.83744376  0.61923525     0.13300
C4228       C  0.33951950  0.82902812  0.60978196    -0.21100
C4229       C  0.33240376  0.82462968  0.57860766    -0.07600
C4230       C  0.35142324  0.82808913  0.55654698     0.13300
C4231       C  0.34531682  0.82282496  0.52278403    -0.24400
H4232       H  0.39179573  0.84168085  0.54891276     0.14500
H4233       H  0.32524930  0.82626742  0.62682834     0.14600
C4234       C  0.37159915  0.84202693  0.65288218    -0.24400
H4235       H  0.36271176  0.82779167  0.50884675     0.04800
H4236       H  0.33699009  0.83437290  0.51397230     0.08000
H4237       H  0.33146075  0.80208394  0.51930923     0.08000
H4238       H  0.38623096  0.86248589  0.65641603     0.08000
H4239       H  0.37940210  0.82969582  0.66078956     0.08000
H4240       H  0.35454822  0.83752557  0.66725941     0.04800
C4241       C  0.24839589  0.80103653  0.69820086    -0.21000
C4242       C  0.22346337  0.78845975  0.71008853    -0.07600
C4243       C  0.20289371  0.78580288  0.69189039     0.13300
C4244       C  0.20754309  0.79397993  0.66113963    -0.21100
C4245       C  0.23243330  0.80535395  0.64869831    -0.07600
C4246       C  0.25326007  0.80969077  0.66775421     0.13300
C4247       C  0.28026213  0.82128085  0.65555513    -0.24400
H4248       H  0.26400568  0.80272547  0.71201064     0.14500
H4249       H  0.19164014  0.79092602  0.64653325     0.14600
C4250       C  0.17615020  0.77427878  0.70499782    -0.24400
H4251       H  0.29395562  0.82245054  0.67352774     0.04800
H4252       H  0.28704787  0.84109235  0.64700914     0.08000
H4253       H  0.28057753  0.80906300  0.63667767     0.08000
H4254       H  0.17614433  0.78638199  0.72425215     0.08000
H4255       H  0.16969609  0.75468973  0.71392817     0.08000
H4256       H  0.16213358  0.77303198  0.68745727     0.04800
C4257       C  0.18634564  0.74198819  0.91739054    -0.21000
C4258       C  0.18991825  0.76244378  0.89831795    -0.07600
C4259       C  0.19863396  0.78700763  0.91166355     0.13300
C4260       C  0.20476222  0.79049223  0.94310918    -0.21100
C4261       C  0.20309882  0.77042878  0.96127874    -0.07600
C4262       C  0.19330710  0.74575290  0.94847843     0.13300
C4263       C  0.19041330  0.72339519  0.96741407    -0.24400
H4264       H  0.17926112  0.72314342  0.90763722     0.14500
H4265       H  0.21246106  0.80942237  0.95312561     0.14600
C4266       C  0.20183511  0.80977760  0.89324712    -0.24400
H4267       H  0.18122244  0.70518494  0.95414161     0.04800
H4268       H  0.17827563  0.72074318  0.98792046     0.08000
H4269       H  0.20959022  0.72701472  0.97485085     0.08000
H4270       H  0.18363012  0.80472773  0.88117361     0.08000
H4271       H  0.21769558  0.81586833  0.87632783     0.08000
H4272       H  0.20678767  0.82661344  0.90815404     0.04800
C4273       C  0.02929034  0.85387259  0.54287683    -0.21000
C4274       C  0.04336495  0.87841672  0.52956613    -0.07600
C4275       C  0.03032899  0.88718859  0.51028327     0.13300
C4276       C  0.00489995  0.86964773  0.50085766    -0.21100
C4277       C  0.99201705  0.84397980  0.51138455    -0.07600
C4278       C  0.00384717  0.83674567  0.53452145     0.13300
C4279       C  0.99002302  0.81094843  0.55060155    -0.24400
H4280       H  0.03867427  0.84759694  0.55924307     0.14500
H4281       H  0.99826242  0.88051020  0.98571931     0.14600
C4282       C  0.04308770  0.91462677  0.49930069    -0.24400
H4283       H  0.00112447  0.81013230  0.57058708     0.04800
H4284       H  0.98705098  0.79977481  0.03822586     0.08000
H4285       H  0.97115882  0.80738492  0.55938932     0.08000
H4286       H  0.06386518  0.92293388  0.98761279     0.08000
H4287       H  0.04813604  0.92761017  0.51941919     0.08000
H4288       H  0.03025591  0.91806832  0.48407941     0.04800
C4289       C  0.22253547  0.88222993  0.56142705    -0.21000
C4290       C  0.21471652  0.85943756  0.54474208    -0.07600
C4291       C  0.19392592  0.85117255  0.52401236     0.13300
C4292       C  0.18100261  0.86508667  0.52132127    -0.21100
C4293       C  0.18776855  0.88711061  0.53900134    -0.07600
C4294       C  0.20919381  0.89607464  0.55900922     0.13300
C4295       C  0.22124835  0.92164607  0.07138637    -0.24400
H4296       H  0.23842430  0.88860443  0.57736970     0.14500
H4297       H  0.16501427  0.85832615  0.50544901     0.14600
C4298       C  0.18540707  0.82780810  0.50408905    -0.24400
H4299       H  0.23875365  0.92591375  0.08460271     0.04800
H4300       H  0.20110420  0.91651633  0.59378253     0.08000
H4301       H  0.22658226  0.93765383  0.05481606     0.08000
H4302       H  0.17733791  0.81017645  0.51848339     0.08000
H4303       H  0.20208045  0.82994261  0.49074470     0.08000
H4304       H  0.17027882  0.82530148  0.48748463     0.04800
C4305       C  0.14477481  0.89835778  0.92173093    -0.21000
C4306       C  0.13010326  0.90473558  0.94100077    -0.07600
C4307       C  0.11036093  0.90804004  0.92866973     0.13300
C4308       C  0.10536668  0.90455072  0.89735207    -0.21100
C4309       C  0.11853602  0.89627809  0.87788761    -0.07600
C4310       C  0.13892963  0.89356610  0.89020051     0.13300
C4311       C  0.15436973  0.88544104  0.87074422    -0.24400
H4312       H  0.16006289  0.89606322  0.93164811     0.14500
H4313       H  0.08995563  0.90713716  0.88850408     0.14600
C4314       C  0.09408673  0.91480807  0.94861075    -0.24400
H4315       H  0.16990007  0.88507461  0.88419752     0.04800
H4316       H  0.16347493  0.89916600  0.85134092     0.08000
H4317       H  0.14173733  0.86577013  0.86170352     0.08000
H4318       H  0.10655133  0.93222566  0.96228689     0.08000
H4319       H  0.08224018  0.89858372  0.96445910     0.08000
H4320       H  0.08078334  0.91862226  0.93480698     0.04800
C4321       C  0.07923257  0.87083414  0.64279735    -0.21000
C4322       C  0.10174853  0.87475827  0.62818790    -0.07600
C4323       C  0.11978855  0.87092388  0.64484525     0.13300
C4324       C  0.11553886  0.86486457  0.67633089    -0.21100
C4325       C  0.09343428  0.86187910  0.69099114    -0.07600
C4326       C  0.07480054  0.86431831  0.67398261     0.13300
C4327       C  0.05077877  0.86116589  0.68896963    -0.24400
H4328       H  0.06536500  0.87363265  0.62990307     0.14500
H4329       H  0.12972789  0.86298214  0.68973854     0.14600
C4330       C  0.14397818  0.87430837  0.63000989    -0.24400
H4331       H  0.03867313  0.86460663  0.67249794     0.04800
H4332       H  0.05590592  0.87498320  0.70824033     0.08000
H4333       H  0.03920823  0.84123862  0.69781618     0.08000
H4334       H  0.15522295  0.89387429  0.61995959     0.08000
H4335       H  0.13895024  0.85985957  0.61152483     0.08000
H4336       H  0.15640201  0.87168863  0.64683437     0.04800
C4337       C  0.52980570  0.19126788  0.67506618    -0.21000
C4338       C  0.50326206  0.17546674  0.66914024    -0.07600
C4339       C  0.49478088  0.15109656  0.65521252     0.13300
C4340       C  0.51260098  0.14327401  0.64853772    -0.21100
C4341       C  0.53876987  0.15856801  0.65527609    -0.07600
C4342       C  0.54767747  0.18315041  0.66808171     0.13300
C4343       C  0.57567421  0.20024628  0.67551245    -0.24400
H4344       H  0.53654576  0.20981069  0.68578669     0.14500
H4345       H  0.50589571  0.12456064  0.63821640     0.14600
C4346       C  0.46687074  0.13221095  0.64844074    -0.24400
H4347       H  0.57935774  0.21854155  0.68622422     0.04800
H4348       H  0.58729930  0.20500247  0.65410739     0.08000
H4349       H  0.58201934  0.19025088  0.69181386     0.08000
H4350       H  0.45925854  0.14056925  0.63149337     0.08000
H4351       H  0.45546415  0.12700563  0.67005871     0.08000
H4352       H  0.46413770  0.11403917  0.63836604     0.04800
C4353       C  0.19674652  0.00678691  0.60055417    -0.21000
C4354       C  0.18231457  0.98082207  0.60926088    -0.07600
C4355       C  0.18005244  0.97411514  0.64082188     0.13300
C4356       C  0.19036229  0.99367949  0.66294375    -0.21100
C4357       C  0.20216079  0.01964225  0.65423856    -0.07600
C4358       C  0.20644205  0.02634868  0.62270214     0.13300
C4359       C  0.22087250  0.05404768  0.61232567    -0.24400
H4360       H  0.19868714  0.01187652  0.57633398     0.14500
H4361       H  0.18731688  0.98863038  0.68718348     0.14600
C4362       C  0.16654262  0.94644226  0.65132137    -0.24400
H4363       H  0.22344001  0.05572181  0.58693737     0.04800
H4364       H  0.24021148  0.06381336  0.62303358     0.08000
H4365       H  0.21034680  0.06410472  0.61888616     0.08000
H4366       H  0.17571457  0.93640733  0.64031320     0.08000
H4367       H  0.14586299  0.93664035  0.64525897     0.08000
H4368       H  0.16778005  0.94481088  0.67666546     0.04800
C4369       C  0.31112756  0.10588435  0.70104859    -0.21000
C4370       C  0.30093959  0.11378380  0.72499617    -0.07600
C4371       C  0.31804185  0.13399646  0.74461561     0.13300
C4372       C  0.34449543  0.14698792  0.73828712    -0.21100
C4373       C  0.35446417  0.14008612  0.71332405    -0.07600
C4374       C  0.33775866  0.11888380  0.69495310     0.13300
C4375       C  0.34788571  0.11086125  0.66803957    -0.24400
H4376       H  0.29813428  0.09034061  0.68615946     0.14500
H4377       H  0.35751443  0.16304156  0.75257455     0.14600
C4378       C  0.30869398  0.14185371  0.77256335    -0.24400
H4379       H  0.33222276  0.09428840  0.65563810     0.04800
H4380       H  0.36180632  0.10514215  0.67626101     0.08000
H4381       H  0.35767024  0.12712190  0.65153776     0.08000
H4382       H  0.29686267  0.12477409  0.78731474     0.08000
H4383       H  0.29718236  0.15078602  0.76556682     0.08000
H4384       H  0.32493222  0.15619815  0.78669720     0.04800
C4385       C  0.14990786  0.99273519  0.78591463    -0.21000
C4386       C  0.14769351  0.00123170  0.75652100    -0.07600
C4387       C  0.12753088  0.98377730  0.73686779     0.13300
C4388       C  0.11122350  0.95830959  0.74668017    -0.21100
C4389       C  0.11492137  0.94967131  0.77504503    -0.07600
C4390       C  0.13389188  0.96723239  0.79537769     0.13300
C4391       C  0.13767729  0.95899077  0.82690585    -0.24400
H4392       H  0.16510898  0.00570181  0.80106876     0.14500
H4393       H  0.09676595  0.94455403  0.73119746     0.14600
C4394       C  0.12404708  0.99093928  0.70463695    -0.24400
H4395       H  0.15250060  0.97546263  0.84031315     0.04800
H4396       H  0.14404845  0.94462465  0.82491154     0.08000
H4397       H  0.11935686  0.95048069  0.84003949     0.08000
H4398       H  0.14170579  0.99676098  0.69084589     0.08000
H4399       H  0.11973846  0.00686813  0.70540410     0.08000
H4400       H  0.10785568  0.97459639  0.69255971     0.04800
C4401       C  0.47608185  0.85117660  0.86568038    -0.21000
C4402       C  0.45233982  0.84235766  0.85108782    -0.07600
C4403       C  0.44467243  0.82315826  0.82826012     0.13300
C4404       C  0.46175225  0.81452270  0.81939489    -0.21100
C4405       C  0.48625692  0.82472318  0.83284552    -0.07600
C4406       C  0.49291870  0.84250316  0.85727406     0.13300
C4407       C  0.51783247  0.85264971  0.87477201    -0.24400
H4408       H  0.48201683  0.86582095  0.88319887     0.14500
H4409       H  0.45655533  0.80090635  0.80071233     0.14600
C4410       C  0.41934450  0.81299840  0.81195202    -0.24400
H4411       H  0.51839946  0.86405084  0.89514054     0.04800
H4412       H  0.53440506  0.86553527  0.85997688     0.08000
H4413       H  0.52001054  0.83636619  0.88316404     0.08000
H4414       H  0.41835616  0.82907540  0.80059156     0.08000
H4415       H  0.40334244  0.80340143  0.82876587     0.08000
H4416       H  0.41672450  0.79873369  0.79404939     0.04800
C4417       C  0.41951034  0.89687412  0.71237693    -0.21000
C4418       C  0.44168214  0.89558852  0.70584250    -0.07600
C4419       C  0.45953125  0.90016938  0.72947920     0.13300
C4420       C  0.45406947  0.90443954  0.75933931    -0.21100
C4421       C  0.43080521  0.90348813  0.76677814    -0.07600
C4422       C  0.41349527  0.90025892  0.74265770     0.13300
C4423       C  0.38844409  0.89964182  0.74832253    -0.24400
H4424       H  0.40632377  0.89420561  0.69391306     0.14500
H4425       H  0.46789253  0.90758969  0.77722948     0.14600
C4426       C  0.48460628  0.90090858  0.72345513    -0.24400
H4427       H  0.37778243  0.89738530  0.72659673     0.04800
H4428       H  0.39217702  0.91790717  0.75914788     0.08000
H4429       H  0.37587521  0.88310339  0.76343693     0.08000
H4430       H  0.49512606  0.91473184  0.70458766     0.08000
H4431       H  0.48099262  0.88152031  0.71704931     0.08000
H4432       H  0.49720220  0.90703150  0.74406352     0.04800
C4433       C  0.45553661  0.92111508  0.97092999    -0.21000
C4434       C  0.45230322  0.89932290  0.95514973    -0.07600
C4435       C  0.45826524  0.88200437  0.97009545     0.13300
C4436       C  0.46166428  0.88133066  0.50378542    -0.21100
C4437       C  0.46983272  0.90523998  0.51744724    -0.07600
C4438       C  0.46294255  0.92508488  0.00202594     0.13300
C4439       C  0.47905721  0.95139482  0.51406511    -0.24400
H4440       H  0.45116501  0.93446450  0.95929423     0.14500
H4441       H  0.46187351  0.86614019  0.51715413     0.14600
C4442       C  0.45677176  0.85908043  0.95398378    -0.24400
H4443       H  0.46295940  0.96132911  0.00218623     0.04800
H4444       H  0.49920502  0.95939434  0.52194742     0.08000
H4445       H  0.46679958  0.95017097  0.53383789     0.08000
H4446       H  0.46859520  0.86555135  0.93277890     0.08000
H4447       H  0.43657675  0.84486954  0.94820805     0.08000
H4448       H  0.44688287  0.83758858  0.47726522     0.04800
C4449       C  0.33335012  0.86925372  0.98656911    -0.21000
C4450       C  0.30742544  0.85502466  0.97797237    -0.07600
C4451       C  0.30071274  0.85293984  0.94655017     0.13300
C4452       C  0.32030571  0.86295234  0.92431380    -0.21100
C4453       C  0.34620540  0.87391526  0.93293250    -0.07600
C4454       C  0.35292753  0.87845490  0.96439239     0.13300
C4455       C  0.38060533  0.89243283  0.97475101    -0.24400
H4456       H  0.33836680  0.87115955  0.01077672     0.14500
H4457       H  0.31525119  0.86006519  0.90011975     0.14600
C4458       C  0.27301589  0.83966070  0.93643861    -0.24400
H4459       H  0.38220062  0.89592960  0.99995780     0.04800
H4460       H  0.39117485  0.91135852  0.96291357     0.08000
H4461       H  0.38997702  0.88097972  0.96960360     0.08000
H4462       H  0.26301168  0.84881259  0.94764757     0.08000
H4463       H  0.26320663  0.81898444  0.94272387     0.08000
H4464       H  0.27131192  0.84093220  0.91111291     0.04800
C4465       C  0.32350260  0.81416963  0.80262422    -0.21000
C4466       C  0.33027925  0.81705428  0.83383487    -0.07600
C4467       C  0.31137478  0.80105769  0.85586001     0.13300
C4468       C  0.28597499  0.78447528  0.84627783    -0.21100
C4469       C  0.27893688  0.78283470  0.81532393    -0.07600
C4470       C  0.29814915  0.79715954  0.79316120     0.13300
C4471       C  0.29135448  0.79658778  0.75989496    -0.24400
H4472       H  0.33781197  0.82620171  0.78570896     0.14500
H4473       H  0.27118966  0.77354098  0.86324565     0.14600
C4474       C  0.31716815  0.80230234  0.88980109    -0.24400
H4475       H  0.30834549  0.80936598  0.74550633     0.04800
H4476       H  0.27735877  0.80339926  0.75832220     0.08000
H4477       H  0.28275526  0.77671980  0.75083893     0.08000
H4478       H  0.32429677  0.82206128  0.89840125     0.08000
H4479       H  0.33182089  0.79653653  0.89389111     0.08000
H4480       H  0.29985973  0.78917394  0.90351909     0.04800
C4481       C  0.62006797  0.17756379  0.91890796    -0.21000
C4482       C  0.60991216  0.15892250  0.89563237    -0.07600
C4483       C  0.62662178  0.15263395  0.87974773     0.13300
C4484       C  0.65225259  0.16341662  0.88918085    -0.21100
C4485       C  0.66194470  0.18035133  0.91414461    -0.07600
C4486       C  0.64575948  0.18798930  0.92880818     0.13300
C4487       C  0.65479326  0.20554936  0.95627183    -0.24400
H4488       H  0.60746262  0.18279755  0.93066691     0.14500
H4489       H  0.66455371  0.15758860  0.87781912     0.14600
C4490       C  0.61771869  0.13468403  0.85255931    -0.24400
H4491       H  0.63942368  0.20881632  0.96550155     0.04800
H4492       H  0.67132604  0.22450076  0.94963506     0.08000
H4493       H  0.66067566  0.19689341  0.97493187     0.08000
H4494       H  0.60932391  0.14176528  0.83505598     0.08000
H4495       H  0.60326832  0.11490153  0.85977040     0.08000
H4496       H  0.63383839  0.13361770  0.84152557     0.04800
C4497       C  0.44714419  0.01606757  0.85883902    -0.21000
C4498       C  0.46323823  0.02541048  0.88479652    -0.07600
C4499       C  0.46348139  0.00751727  0.90593037     0.13300
C4500       C  0.44955849  0.98113068  0.89931084    -0.21100
C4501       C  0.43500878  0.97189052  0.87235024    -0.07600
C4502       C  0.43306879  0.98943685  0.85233026     0.13300
C4503       C  0.41727775  0.98016924  0.82342586    -0.24400
H4504       H  0.44669176  0.02967779  0.84276879     0.14500
H4505       H  0.45077348  0.96758253  0.91481088     0.14600
C4506       C  0.47832484  0.01608464  0.93568581    -0.24400
H4507       H  0.41802416  0.99632822  0.81005964     0.04800
H4508       H  0.39690865  0.96654718  0.82947989     0.08000
H4509       H  0.42461330  0.97022503  0.80857197     0.08000
H4510       H  0.47232538  0.02801637  0.94888083     0.08000
H4511       H  0.49926585  0.02736930  0.93102820     0.08000
H4512       H  0.47482742  0.99946057  0.95038546     0.04800
C4513       C  0.51197001  0.08458320  0.00609728    -0.21000
C4514       C  0.52728706  0.10239097  0.98347902    -0.07600
C4515       C  0.55332998  0.12780535  0.49206199     0.13300
C4516       C  0.55957387  0.13161520  0.52327207    -0.21100
C4517       C  0.54499490  0.11283327  0.54553112    -0.07600
C4518       C  0.52227556  0.09023513  0.53609167     0.13300
C4519       C  0.50516877  0.06940006  0.55847702    -0.24400
H4520       H  0.49526918  0.06673974  0.99907245     0.14500
H4521       H  0.57660156  0.14923262  0.53012981     0.14600
C4522       C  0.56522408  0.14618933  0.96897855    -0.24400
H4523       H  0.48848158  0.05325300  0.54680742     0.04800
H4524       H  0.49751566  0.07731962  0.57590924     0.08000
H4525       H  0.51612229  0.06139449  0.57000227     0.08000
H4526       H  0.55322912  0.15103678  0.95408677     0.08000
H4527       H  0.57537760  0.13881885  0.95465626     0.08000
H4528       H  0.58559262  0.16584569  0.48095321     0.04800
C4529       C  0.57361244  0.12192671  0.78098234    -0.21000
C4530       C  0.55316759  0.10057895  0.79566286    -0.07600
C4531       C  0.53949086  0.07723518  0.77921874     0.13300
C4532       C  0.54628058  0.07624700  0.74837209    -0.21100
C4533       C  0.56660713  0.09783216  0.73390474    -0.07600
C4534       C  0.58053453  0.12090186  0.75056849     0.13300
C4535       C  0.60176000  0.14511028  0.73594200    -0.24400
H4536       H  0.58397725  0.13999874  0.79312974     0.14500
H4537       H  0.53545866  0.05869091  0.73531207     0.14600
C4538       C  0.51713965  0.05376430  0.79340417    -0.24400
H4539       H  0.60942758  0.16172383  0.75189924     0.04800
H4540       H  0.59438358  0.15018800  0.71520670     0.08000
H4541       H  0.61801809  0.14227769  0.72937719     0.08000
H4542       H  0.50216972  0.05830785  0.80082693     0.08000
H4543       H  0.52377751  0.04724568  0.81354411     0.08000
H4544       H  0.50820023  0.03756071  0.77687138     0.04800
C4545       C  0.45894914  0.13967162  0.82811597    -0.21000
C4546       C  0.47124902  0.12609309  0.81912499    -0.07600
C4547       C  0.47211174  0.12057542  0.78773922     0.13300
C4548       C  0.46258550  0.13074746  0.76580232    -0.21100
C4549       C  0.45318992  0.14697725  0.77456875    -0.07600
C4550       C  0.45022874  0.15061619  0.80608443     0.13300
C4551       C  0.43844863  0.16638534  0.81652134    -0.24400
H4552       H  0.45820108  0.14364374  0.85231422     0.14500
H4553       H  0.46449196  0.12778364  0.74154607     0.14600
C4554       C  0.48366889  0.10460973  0.77724722    -0.24400
H4555       H  0.43636899  0.16596066  0.84196318     0.04800
H4556       H  0.41905407  0.15862100  0.80624071     0.08000
H4557       H  0.45070302  0.18678115  0.80952486     0.08000
H4558       H  0.47402022  0.08571416  0.78924156     0.08000
H4559       H  0.50456055  0.11458621  0.78220993     0.08000
H4560       H  0.48132760  0.10102419  0.75206914     0.04800
C4561       C  0.49945288  0.20255721  0.95745156    -0.21000
C4562       C  0.49345326  0.21493250  0.93406662    -0.07600
C4563       C  0.49680785  0.21035011  0.90300129     0.13300
C4564       C  0.50536984  0.19305424  0.89609490    -0.21100
C4565       C  0.50963928  0.17922217  0.91931259    -0.07600
C4566       C  0.50706791  0.18439362  0.95047227     0.13300
C4567       C  0.51222303  0.17084901  0.97636374    -0.24400
H4568       H  0.49657788  0.20588773  0.98126023     0.14500
H4569       H  0.50720335  0.18912502  0.87216591     0.14600
C4570       C  0.49094586  0.22333251  0.87698197    -0.24400
H4571       H  0.51025987  0.17795071  0.99920589     0.04800
H4572       H  0.53210407  0.17426902  0.97438977     0.08000
H4573       H  0.49836029  0.14989309  0.97561029     0.08000
H4574       H  0.50234059  0.24452294  0.87978483     0.08000
H4575       H  0.47017579  0.21711920  0.87672593     0.08000
H4576       H  0.49576747  0.21846620  0.85421405     0.04800
C4577       C  0.51061465  0.34173279  0.88850421    -0.21000
C4578       C  0.51359124  0.33450968  0.91822378    -0.07600
C4579       C  0.53341844  0.35289790  0.93720759     0.13300
C4580       C  0.54893747  0.37836593  0.92644222    -0.21100
C4581       C  0.54473928  0.38588388  0.89739841    -0.07600
C4582       C  0.52593949  0.36708356  0.87787589     0.13300
C4583       C  0.52186829  0.37380278  0.84577291    -0.24400
H4584       H  0.49541032  0.32768157  0.87400574     0.14500
H4585       H  0.56311080  0.39283161  0.94155509     0.14600
C4586       C  0.53691767  0.34627289  0.96963914    -0.24400
H4587       H  0.50691438  0.35675622  0.83328095     0.04800
H4588       H  0.54015885  0.38149022  0.83275513     0.08000
H4589       H  0.51568781  0.38837656  0.84642613     0.08000
H4590       H  0.54127486  0.33036810  0.96934650     0.08000
H4591       H  0.51910096  0.34027196  0.98314288     0.08000
H4592       H  0.55295426  0.36294357  0.98147482     0.04800
C4593       C  0.44789758  0.25850018  0.83552998    -0.21000
C4594       C  0.42834519  0.23914892  0.85362393    -0.07600
C4595       C  0.41004271  0.21590033  0.83940234     0.13300
C4596       C  0.41262007  0.21224330  0.80795833    -0.21100
C4597       C  0.43328732  0.23088059  0.79060503    -0.07600
C4598       C  0.45076421  0.25460448  0.80432536     0.13300
C4599       C  0.47237027  0.27599020  0.78620274    -0.24400
H4600       H  0.46178412  0.27644445  0.84617166     0.14500
H4601       H  0.39916162  0.19415875  0.79722714     0.14600
C4602       C  0.38774694  0.19485834  0.85696763    -0.24400
H4603       H  0.48291399  0.29380105  0.80004636     0.04800
H4604       H  0.48648860  0.27026117  0.77896502     0.08000
H4605       H  0.46452126  0.28061213  0.76555917     0.08000
H4606       H  0.37668156  0.20275704  0.86845431     0.08000
H4607       H  0.39481314  0.18631410  0.87436239     0.08000
H4608       H  0.37439870  0.17906603  0.84156936     0.04800
C4609       C  0.45457622  0.21164365  0.56050551    -0.21000
C4610       C  0.43483435  0.21145683  0.54338198    -0.07600
C4611       C  0.41031449  0.20227355  0.55674042     0.13300
C4612       C  0.40639171  0.19426678  0.58765636    -0.21100
C4613       C  0.42635666  0.19492208  0.60495945    -0.07600
C4614       C  0.45058038  0.20326741  0.59111098     0.13300
C4615       C  0.47253284  0.20412268  0.60875003    -0.24400
H4616       H  0.47334243  0.21886806  0.55000193     0.14500
H4617       H  0.38802138  0.18824872  0.59862241     0.14600
C4618       C  0.38876345  0.20212545  0.53889678    -0.24400
H4619       H  0.49050321  0.21264931  0.59490946     0.04800
H4620       H  0.46752745  0.18423672  0.61479325     0.08000
H4621       H  0.47639566  0.21582305  0.62990373     0.08000
H4622       H  0.38399758  0.18929224  0.51868822     0.08000
H4623       H  0.39463717  0.22191071  0.53094280     0.08000
H4624       H  0.37110649  0.19503863  0.55310387     0.04800
C4625       C  0.16228542  0.03653781  0.97245634    -0.21000
C4626       C  0.16983962  0.05487128  0.99600036    -0.07600
C4627       C  0.16239019  0.04355303  0.52454140     0.13300
C4628       C  0.15252527  0.01742043  0.53144145    -0.21100
C4629       C  0.15036319  0.00211262  0.01007503    -0.07600
C4630       C  0.15300431  0.01035606  0.97904642     0.13300
C4631       C  0.14594826  0.99173948  0.95278028    -0.24400
H4632       H  0.16500305  0.04297165  0.94868886     0.14500
H4633       H  0.15090118  0.01149485  0.55533671     0.14600
C4634       C  0.16962197  0.06250066  0.55059641    -0.24400
H4635       H  0.14845347  0.00138382  0.93014351     0.04800
H4636       H  0.12548247  0.97660067  0.95496164     0.08000
H4637       H  0.15830298  0.98287867  0.95276537     0.08000
H4638       H  0.15927133  0.07339031  0.54813250     0.08000
H4639       H  0.19064232  0.07611814  0.55058448     0.08000
H4640       H  0.16455553  0.05271245  0.57337650     0.04800
C4641       C  0.31750200  0.17751093  0.95725780    -0.21000
C4642       C  0.30483229  0.19119358  0.96431164    -0.07600
C4643       C  0.31976256  0.21841235  0.96662047     0.13300
C4644       C  0.34670053  0.23081534  0.96254357    -0.21100
C4645       C  0.35923530  0.21680246  0.95680473    -0.07600
C4646       C  0.34421226  0.18972892  0.95362314     0.13300
C4647       C  0.35590436  0.17331591  0.94560124    -0.24400
H4648       H  0.30647195  0.15677606  0.95510621     0.14500
H4649       H  0.35812477  0.25154522  0.96455311     0.14600
C4650       C  0.30767909  0.23464438  0.97316600    -0.24400
H4651       H  0.34102767  0.15295384  0.94154282     0.04800
H4652       H  0.36810636  0.17336034  0.96476845     0.08000
H4653       H  0.36751653  0.18065757  0.92423929     0.08000
H4654       H  0.29864469  0.22995857  0.99633593     0.08000
H4655       H  0.29300069  0.23114675  0.95541128     0.08000
H4656       H  0.32210759  0.25549513  0.97285672     0.04800
C4657       C  0.11237641  0.15669784  0.00667020    -0.21000
C4658       C  0.11600040  0.17118103  0.52979642    -0.07600
C4659       C  0.14034749  0.17947911  0.54341606     0.13300
C4660       C  0.15523240  0.16897776  0.53351809    -0.21100
C4661       C  0.14688623  0.15029152  0.51040878    -0.07600
C4662       C  0.12768194  0.14632845  0.99671276     0.13300
C4663       C  0.11791389  0.12665777  0.97140040    -0.24400
H4664       H  0.09376896  0.15022591  0.99621696     0.14500
H4665       H  0.17449856  0.17688786  0.54251640     0.14600
C4666       C  0.15144021  0.19998029  0.56796349    -0.24400
H4667       H  0.09838436  0.12187052  0.96374726     0.04800
H4668       H  0.11690261  0.10867672  0.97970292     0.08000
H4669       H  0.13098658  0.13421954  0.95119425     0.08000
H4670       H  0.13729513  0.19523303  0.58675871     0.08000
H4671       H  0.15690016  0.21908824  0.55807636     0.08000
H4672       H  0.16908767  0.20161158  0.57834338     0.04800
C4673       C  0.24927057  0.13827848  0.58680257    -0.21000
C4674       C  0.22944529  0.14078117  0.57304273    -0.07600
C4675       C  0.20796944  0.13634590  0.59108966     0.13300
C4676       C  0.20661931  0.12899170  0.62192850    -0.21100
C4677       C  0.22606265  0.12587705  0.63549650    -0.07600
C4678       C  0.24797396  0.13111333  0.61793804     0.13300
C4679       C  0.26942369  0.12811012  0.63143858    -0.24400
H4680       H  0.26564887  0.14152640  0.57295882     0.14500
H4681       H  0.18983667  0.12500261  0.63546028     0.14600
C4682       C  0.18575583  0.13812590  0.57781487    -0.24400
H4683       H  0.28452169  0.13193133  0.61409074     0.04800
H4684       H  0.26177047  0.10824091  0.64028498     0.08000
H4685       H  0.27859317  0.14191251  0.65060070     0.08000
H4686       H  0.17766188  0.12514581  0.55770022     0.08000
H4687       H  0.19258509  0.15825244  0.57078092     0.08000
H4688       H  0.17002009  0.13263154  0.59481925     0.04800
C4689       C  0.21180235  0.08275760  0.87462348    -0.21000
C4690       C  0.22480579  0.10785352  0.88592922    -0.07600
C4691       C  0.24128417  0.12839837  0.86646554     0.13300
C4692       C  0.24317960  0.12355124  0.83531702    -0.21100
C4693       C  0.22922695  0.09856399  0.82342983    -0.07600
C4694       C  0.21380794  0.07781905  0.84349632     0.13300
C4695       C  0.19783962  0.05080240  0.83183862    -0.24400
H4696       H  0.19898546  0.06721163  0.88981580     0.14500
H4697       H  0.25519968  0.13938662  0.82001811     0.14600
C4698       C  0.25667290  0.15542833  0.87862877    -0.24400
H4699       H  0.18620351  0.03718947  0.85045558     0.04800
H4700       H  0.21044456  0.04402902  0.82200279     0.08000
H4701       H  0.18442977  0.05038445  0.81399639     0.08000
H4702       H  0.26982517  0.15604915  0.89697746     0.08000
H4703       H  0.24372754  0.16175459  0.88845371     0.08000
H4704       H  0.26843612  0.16928239  0.86028424     0.04800
C4705       C  0.44978508  0.62709169  0.56966932    -0.21000
C4706       C  0.45235251  0.61902930  0.59910525    -0.07600
C4707       C  0.47057794  0.63710247  0.61970383     0.13300
C4708       C  0.48662430  0.66262922  0.60997212    -0.21100
C4709       C  0.48478155  0.67059342  0.58016544    -0.07600
C4710       C  0.46581069  0.65271217  0.55992238     0.13300
C4711       C  0.46363125  0.66008709  0.52735211    -0.24400
H4712       H  0.43605233  0.61303397  0.55381513     0.14500
H4713       H  0.50143855  0.67619138  0.62525370     0.14600
C4714       C  0.47389746  0.62911364  0.65152656    -0.24400
H4715       H  0.44804944  0.64372626  0.51457134     0.04800
H4716       H  0.48193346  0.66627851  0.51485603     0.08000
H4717       H  0.45933187  0.67603275  0.52745877     0.08000
H4718       H  0.47967141  0.61425691  0.64989116     0.08000
H4719       H  0.45551004  0.62109974  0.66445210     0.08000
H4720       H  0.48890149  0.64558185  0.66475820     0.04800
C4721       C  0.29280877  0.51719991  0.57678847    -0.21000
C4722       C  0.28155428  0.49594368  0.55692096    -0.07600
C4723       C  0.29725120  0.48650689  0.54474800     0.13300
C4724       C  0.32282678  0.49735559  0.55431066    -0.21100
C4725       C  0.33333143  0.51676940  0.57650556    -0.07600
C4726       C  0.31841407  0.52751495  0.58710136     0.13300
C4727       C  0.32870281  0.54864085  0.61067503    -0.24400
H4728       H  0.28102659  0.52462125  0.58593004     0.14500
H4729       H  0.33434994  0.48942431  0.54573118     0.14600
C4730       C  0.28731186  0.46432018  0.52242424    -0.24400
H4731       H  0.31432976  0.55437650  0.61680224     0.04800
H4732       H  0.34597830  0.56586028  0.60139328     0.08000
H4733       H  0.33382523  0.54204117  0.63203896     0.08000
H4734       H  0.27782310  0.46775767  0.50264989     0.08000
H4735       H  0.27358610  0.44608614  0.53412531     0.08000
H4736       H  0.30302312  0.46164170  0.51308118     0.04800
C4737       C  0.43927103  0.53134875  0.97067711    -0.21000
C4738       C  0.43403510  0.55075148  0.96119150    -0.07600
C4739       C  0.42466121  0.56161287  0.98330048     0.13300
C4740       C  0.42363593  0.55177242  0.51291650    -0.21100
C4741       C  0.43132029  0.53455771  0.52257962    -0.07600
C4742       C  0.44329972  0.52588944  0.50188610     0.13300
C4743       C  0.45265271  0.50810360  0.51240434    -0.24400
H4744       H  0.44640179  0.52292009  0.95416038     0.14500
H4745       H  0.41494242  0.55859217  0.52956099     0.14600
C4746       C  0.41866033  0.58270013  0.97610413    -0.24400
H4747       H  0.46139507  0.50292012  0.49320080     0.04800
H4748       H  0.43634391  0.49014504  0.52190397     0.08000
H4749       H  0.46742501  0.51764338  0.53054967     0.08000
H4750       H  0.40324289  0.57602617  0.95862313     0.08000
H4751       H  0.43616641  0.60019151  0.96784588     0.08000
H4752       H  0.41173851  0.58843511  0.99666349     0.04800
C4753       C  0.43975499  0.57336762  0.76398928    -0.21000
C4754       C  0.46051982  0.57047097  0.77270341    -0.07600
C4755       C  0.47479162  0.56607080  0.75031860     0.13300
C4756       C  0.46697494  0.56336710  0.71942463    -0.21100
C4757       C  0.44539689  0.56524993  0.71065708    -0.07600
C4758       C  0.43208411  0.57114068  0.73333811     0.13300
C4759       C  0.41000280  0.57552779  0.72592129    -0.24400
H4760       H  0.42943399  0.57745991  0.78150601     0.14500
H4761       H  0.47731258  0.55901067  0.70225357     0.14600
C4762       C  0.49750904  0.56329046  0.75916392    -0.24400
H4763       H  0.40407746  0.58253954  0.74621821     0.04800
H4764       H  0.39289826  0.55731031  0.71865574     0.08000
H4765       H  0.41580246  0.59029883  0.70751978     0.08000
H4766       H  0.49139164  0.54722788  0.77588004     0.08000
H4767       H  0.51255973  0.58135839  0.76982982     0.08000
H4768       H  0.50609957  0.55919365  0.73885403     0.04800
C4769       C  0.62025104  0.45674255  0.68660972    -0.21000
C4770       C  0.61272058  0.45537062  0.65586669    -0.07600
C4771       C  0.63144344  0.47024906  0.63345513     0.13300
C4772       C  0.65692520  0.48725074  0.64253787    -0.21100
C4773       C  0.66443087  0.48950560  0.67351521    -0.07600
C4774       C  0.64590551  0.47316053  0.69570151     0.13300
C4775       C  0.65250849  0.47354627  0.72926085    -0.24400
H4776       H  0.60578493  0.44538892  0.70372059     0.14500
H4777       H  0.67089771  0.49948622  0.62543610     0.14600
C4778       C  0.62425678  0.46921040  0.60007955    -0.24400
H4779       H  0.63548481  0.46017782  0.74324126     0.04800
H4780       H  0.66006503  0.49308853  0.73876759     0.08000
H4781       H  0.66713925  0.46755354  0.73187103     0.08000
H4782       H  0.60963398  0.47520747  0.59750687     0.08000
H4783       H  0.61633990  0.44930421  0.59148154     0.08000
H4784       H  0.64109592  0.48212344  0.58556581     0.04800
C4785       C  0.52378647  0.45297303  0.74720559    -0.21000
C4786       C  0.52231730  0.43125768  0.73303728    -0.07600
C4787       C  0.52724052  0.41435729  0.75063682     0.13300
C4788       C  0.53416846  0.41993669  0.78144592    -0.21100
C4789       C  0.53618913  0.44175775  0.79562104    -0.07600
C4790       C  0.53044057  0.45831657  0.77851538     0.13300
C4791       C  0.53251803  0.48214966  0.79265078    -0.24400
H4792       H  0.52016064  0.46598543  0.73360502     0.14500
H4793       H  0.53905776  0.40756556  0.79430633     0.14600
C4794       C  0.52717103  0.39136043  0.73669563    -0.24400
H4795       H  0.52831312  0.49340154  0.77565173     0.04800
H4796       H  0.51854067  0.47671261  0.81187143     0.08000
H4797       H  0.55224950  0.49469907  0.80156620     0.08000
H4798       H  0.54063797  0.39772299  0.71684877     0.08000
H4799       H  0.50751371  0.37704075  0.72904466     0.08000
H4800       H  0.53339975  0.38153672  0.75340541     0.04800
C4801       C  0.55911529  0.47378383  0.53647800    -0.21000
C4802       C  0.56219411  0.45287177  0.54497864    -0.07600
C4803       C  0.56900777  0.44045219  0.52211832     0.13300
C4804       C  0.57089363  0.44856069  0.99091238    -0.21100
C4805       C  0.56757208  0.46913312  0.98236716    -0.07600
C4806       C  0.56338889  0.48333168  0.00509925     0.13300
C4807       C  0.56066753  0.50617575  0.99667320    -0.24400
H4808       H  0.55432656  0.48358135  0.55388973     0.14500
H4809       H  0.57491646  0.43833009  0.97322827     0.14600
C4810       C  0.57568112  0.41986994  0.52952144    -0.24400
H4811       H  0.55244272  0.51150213  0.51756848     0.04800
H4812       H  0.54446638  0.50021802  0.98039271     0.08000
H4813       H  0.57866233  0.52122281  0.98569602     0.08000
H4814       H  0.55848679  0.40188846  0.53724320     0.08000
H4815       H  0.59069087  0.42681772  0.54757381     0.08000
H4816       H  0.58333815  0.41481907  0.50906796     0.04800
C4817       C  0.45385992  0.32919401  0.57362379    -0.21000
C4818       C  0.47223402  0.35472925  0.56629452    -0.07600
C4819       C  0.47860704  0.36185156  0.53514613     0.13300
C4820       C  0.46846323  0.34284795  0.51232710    -0.21100
C4821       C  0.45217834  0.31692566  0.52000596    -0.07600
C4822       C  0.44390847  0.31009226  0.55073106     0.13300
C4823       C  0.42583478  0.28246868  0.55943932    -0.24400
H4824       H  0.44878036  0.32382710  0.59752264     0.14500
H4825       H  0.47481439  0.34794904  0.48866367     0.14600
C4826       C  0.49701016  0.38930350  0.52612803    -0.24400
H4827       H  0.42075767  0.28040756  0.58426825     0.04800
H4828       H  0.44174161  0.27326456  0.05170002     0.08000
H4829       H  0.40779540  0.27499228  0.54600149     0.08000
H4830       H  0.51603483  0.39556279  0.53642510     0.08000
H4831       H  0.48969316  0.40190720  0.53447511     0.08000
H4832       H  0.49955815  0.39167479  0.50076999     0.04800
C4833       C  0.46149777  0.45436674  0.65225391    -0.21000
C4834       C  0.47658728  0.45450238  0.62736431    -0.07600
C4835       C  0.47751935  0.46799512  0.60011755     0.13300
C4836       C  0.46358270  0.48107305  0.59865814    -0.21100
C4837       C  0.44923202  0.48151601  0.62387546    -0.07600
C4838       C  0.44809503  0.46800438  0.65093394     0.13300
C4839       C  0.43280674  0.46811639  0.67834753    -0.24400
H4840       H  0.46085249  0.44421499  0.67321704     0.14500
H4841       H  0.46431784  0.49151444  0.57793045     0.14600
C4842       C  0.49279202  0.46838562  0.57235682    -0.24400
H4843       H  0.43376399  0.45648909  0.69769221     0.04800
H4844       H  0.41233711  0.45999402  0.67176813     0.08000
H4845       H  0.44044710  0.48813006  0.68653793     0.08000
H4846       H  0.48661834  0.44840471  0.56514866     0.08000
H4847       H  0.51359257  0.47861315  0.57785402     0.08000
H4848       H  0.49005133  0.47850437  0.55253828     0.04800
C4849       C  0.50946498  0.29978541  0.69465071    -0.21000
C4850       C  0.48840117  0.28072835  0.67824540    -0.07600
C4851       C  0.47848357  0.28814749  0.65324456     0.13300
C4852       C  0.48820648  0.31427769  0.64708022    -0.21100
C4853       C  0.50787872  0.33348512  0.66482592    -0.07600
C4854       C  0.51958872  0.32617154  0.68799895     0.13300
C4855       C  0.54191578  0.34537133  0.70685443    -0.24400
H4856       H  0.51724571  0.29415252  0.71371467     0.14500
H4857       H  0.47999145  0.31983162  0.62844913     0.14600
C4858       C  0.45755865  0.26859865  0.63287460    -0.24400
H4859       H  0.55821637  0.34174286  0.70433582     0.04800
H4860       H  0.53624397  0.34324253  0.73148666     0.08000
H4861       H  0.54879489  0.36545081  0.69970167     0.08000
H4862       H  0.43924257  0.25814224  0.64582525     0.08000
H4863       H  0.46321954  0.25481504  0.62403774     0.08000
H4864       H  0.45409952  0.27783252  0.61272055     0.04800
C4865       C  0.21107218  0.50880323  0.84121146    -0.21000
C4866       C  0.20498003  0.49260179  0.81565925    -0.07600
C4867       C  0.18280267  0.48647492  0.79829393     0.13300
C4868       C  0.16666471  0.49585261  0.80752969    -0.21100
C4869       C  0.17217196  0.51151189  0.83355661    -0.07600
C4870       C  0.19485049  0.51826864  0.85050142     0.13300
C4871       C  0.20105912  0.53381327  0.87959722    -0.24400
H4872       H  0.22792839  0.51310749  0.85468707     0.14500
H4873       H  0.14908054  0.49008620  0.79496980     0.14600
C4874       C  0.17579226  0.46945480  0.77034759    -0.24400
H4875       H  0.21894511  0.53648265  0.89050200     0.04800
H4876       H  0.18513366  0.52382621  0.89645067     0.08000
H4877       H  0.20383602  0.55313848  0.87435934     0.08000
H4878       H  0.17240570  0.45016194  0.77708639     0.08000
H4879       H  0.19167207  0.47814083  0.75324334     0.08000
H4880       H  0.15806603  0.46690873  0.75911591     0.04800
C4881       C  0.24478624  0.46052595  0.90836663    -0.21000
C4882       C  0.23298277  0.43568062  0.89644750    -0.07600
C4883       C  0.21588464  0.41463710  0.91482453     0.13300
C4884       C  0.21149656  0.41904269  0.94538385    -0.21100
C4885       C  0.22291662  0.44412222  0.95737660    -0.07600
C4886       C  0.23950224  0.46529318  0.93810663     0.13300
C4887       C  0.25134254  0.49315094  0.94758615    -0.24400
H4888       H  0.25742593  0.47654700  0.89359641     0.14500
H4889       H  0.19854531  0.40285307  0.95966868     0.14600
C4890       C  0.20265556  0.38764565  0.90243027    -0.24400
H4891       H  0.26410993  0.50654655  0.92944375     0.04800
H4892       H  0.26317957  0.49699309  0.96852208     0.08000
H4893       H  0.23599892  0.49795783  0.95171989     0.08000
H4894       H  0.21724812  0.38274155  0.89454302     0.08000
H4895       H  0.19009690  0.38601142  0.88282381     0.08000
H4896       H  0.19046928  0.37337272  0.92019941     0.04800
C4897       C  0.22641361  0.46394624  0.68592514    -0.21000
C4898       C  0.21241830  0.44427589  0.70747742    -0.07600
C4899       C  0.19080123  0.42104132  0.69742939     0.13300
C4900       C  0.18461362  0.41790881  0.66595673    -0.21100
C4901       C  0.19966235  0.43719865  0.64468620    -0.07600
C4902       C  0.22051475  0.46061743  0.65473527     0.13300
C4903       C  0.23654462  0.48231618  0.63264903    -0.24400
H4904       H  0.24258773  0.48202879  0.69335210     0.14500
H4905       H  0.16833952  0.40020256  0.65778727     0.14600
C4906       C  0.17440985  0.39937513  0.71924489    -0.24400
H4907       H  0.25114525  0.49981698  0.64477447     0.04800
H4908       H  0.22403356  0.48751191  0.61929309     0.08000
H4909       H  0.24695506  0.47634338  0.61666259     0.08000
H4910       H  0.16537733  0.40600513  0.73648507     0.08000
H4911       H  0.18629906  0.39264475  0.73111442     0.08000
H4912       H  0.15874099  0.38265785  0.70704046     0.04800
C4913       C  0.33929052  0.47256810  0.73915463    -0.21000
C4914       C  0.31294487  0.46034798  0.73264718    -0.07600
C4915       C  0.30453938  0.45491503  0.70183511     0.13300
C4916       C  0.32280457  0.46370128  0.67798578    -0.21100
C4917       C  0.34915723  0.47794335  0.68443085    -0.07600
C4918       C  0.35755764  0.48153102  0.71529318     0.13300
C4919       C  0.38574893  0.49610908  0.72298553    -0.24400
H4920       H  0.34560467  0.47687270  0.76286759     0.14500
H4921       H  0.31648734  0.46123003  0.65423149     0.14600
C4922       C  0.27634592  0.44117684  0.69411532    -0.24400
H4923       H  0.38905558  0.49708640  0.74822203     0.04800
H4924       H  0.39448071  0.51602035  0.71410553     0.08000
H4925       H  0.39551359  0.48651403  0.71228823     0.08000
H4926       H  0.26775826  0.45276185  0.70187958     0.08000
H4927       H  0.26646238  0.42215380  0.70579498     0.08000
H4928       H  0.27303428  0.43805595  0.66895340     0.04800
C4929       C  0.33471173  0.51983134  0.86448118    -0.21000
C4930       C  0.32822329  0.51999490  0.83356238    -0.07600
C4931       C  0.34687730  0.53816183  0.81310142     0.13300
C4932       C  0.37200359  0.55482026  0.82373896    -0.21100
C4933       C  0.37891594  0.55336195  0.85417867    -0.07600
C4934       C  0.35980573  0.53633587  0.87504288     0.13300
C4935       C  0.36601976  0.53525577  0.90841172    -0.24400
H4936       H  0.32038420  0.50588725  0.88008364     0.14500
H4937       H  0.38673480  0.56762565  0.80770483     0.14600
C4938       C  0.34088787  0.53864083  0.77952808    -0.24400
H4939       H  0.34878253  0.52135227  0.92169943     0.04800
H4940       H  0.38071197  0.52931671  0.91059371     0.08000
H4941       H  0.37342630  0.55453688  0.91875581     0.08000
H4942       H  0.32460224  0.54229376  0.77708132     0.08000
H4943       H  0.33574712  0.51993155  0.76883495     0.08000
H4944       H  0.35759150  0.55393431  0.76674933     0.04800
C4945       C  0.04473434  0.17283477  0.73461742    -0.21000
C4946       C  0.05166489  0.17906440  0.76551910    -0.07600
C4947       C  0.03246813  0.17453959  0.78738907     0.13300
C4948       C  0.00699331  0.16503194  0.77765465    -0.21100
C4949       C  0.99988077  0.15942083  0.74659995    -0.07600
C4950       C  0.01906087  0.16263506  0.72489839     0.13300
C4951       C  0.01307280  0.15643106  0.69125703    -0.24400
H4952       H  0.05960591  0.17640821  0.71793415     0.14500
H4953       H  0.99274140  0.16271394  0.79439717     0.14600
C4954       C  0.03907952  0.18104706  0.82085878    -0.24400
H4955       H  0.03051960  0.16093120  0.67768292     0.04800
H4956       H  0.00488372  0.16780808  0.68142568     0.08000
H4957       H  0.99913827  0.13561547  0.68853253     0.08000
H4958       H  0.05327830  0.20184002  0.82322484     0.08000
H4959       H  0.04737726  0.16961549  0.83038160     0.08000
H4960       H  0.02188491  0.17676243  0.83481926     0.04800
C4961       C  0.20223021  0.32464815  0.76629675    -0.21000
C4962       C  0.19228452  0.30953619  0.79297606    -0.07600
C4963       C  0.19720198  0.32169532  0.82195989     0.13300
C4964       C  0.21091790  0.34872479  0.82343353    -0.21100
C4965       C  0.21943124  0.36380921  0.79659123    -0.07600
C4966       C  0.21559906  0.35166598  0.76775403     0.13300
C4967       C  0.22585526  0.36721514  0.73861247    -0.24400
H4968       H  0.19864568  0.31526855  0.74410570     0.14500
H4969       H  0.21410214  0.35814317  0.84553686     0.14600
C4970       C  0.18821929  0.30620478  0.85130262    -0.24400
H4971       H  0.22160635  0.35472446  0.71812103     0.04800
H4972       H  0.24702779  0.37973208  0.74036626     0.08000
H4973       H  0.21707991  0.37941679  0.73494668     0.08000
H4974       H  0.19627650  0.29314934  0.85282861     0.08000
H4975       H  0.16694251  0.29462143  0.85177963     0.08000
H4976       H  0.19449522  0.31873623  0.87194454     0.04800
C4977       C  0.13853276  0.13254191  0.76461294    -0.21000
C4978       C  0.14730912  0.15539193  0.74750960    -0.07600
C4979       C  0.16288355  0.15959379  0.72130362     0.13300
C4980       C  0.17148067  0.14233217  0.71480721    -0.21100
C4981       C  0.16504287  0.12101272  0.73382097    -0.07600
C4982       C  0.14747413  0.11535206  0.75821867     0.13300
C4983       C  0.13971449  0.09238258  0.77876987    -0.24400
H4984       H  0.12649965  0.12928168  0.78464514     0.14500
H4985       H  0.18445795  0.14621846  0.69556746     0.14600
C4986       C  0.17083701  0.18244029  0.70031459    -0.24400
H4987       H  0.12635152  0.09114356  0.79724564     0.04800
H4988       H  0.15700987  0.09370574  0.78979123     0.08000
H4989       H  0.12987847  0.07450148  0.76496093     0.08000
H4990       H  0.18379562  0.20059833  0.71244506     0.08000
H4991       H  0.15352276  0.18284959  0.69222131     0.08000
H4992       H  0.18133971  0.18155332  0.67973321     0.04800
C4993       C  0.19585848  0.22174120  0.87906691    -0.21000
C4994       C  0.19107097  0.20922669  0.85055699    -0.07600
C4995       C  0.19711795  0.18952219  0.84654470     0.13300
C4996       C  0.20586874  0.18138752  0.87168415    -0.21100
C4997       C  0.20879114  0.19245994  0.90081424    -0.07600
C4998       C  0.20454269  0.21341456  0.90440690     0.13300
C4999       C  0.20719546  0.22554130  0.93545425    -0.24400
H5000       H  0.19088531  0.23662756  0.88215521     0.14500
H5001       H  0.20860868  0.16498243  0.86909583     0.14600
C5002       C  0.19303134  0.17608080  0.81608457    -0.24400
H5003       H  0.20283073  0.24144362  0.93442776     0.04800
H5004       H  0.22718315  0.23347552  0.94388445     0.08000
H5005       H  0.19371658  0.21091351  0.95210259     0.08000
H5006       H  0.20402022  0.19037822  0.79778368     0.08000
H5007       H  0.17232607  0.16584368  0.81024677     0.08000
H5008       H  0.19947626  0.16167705  0.81663921     0.04800
C5009       C  0.12271730  0.21384616  0.67875893    -0.21000
C5010       C  0.13692756  0.23898330  0.68960747    -0.07600
C5011       C  0.14109992  0.25974088  0.67056584     0.13300
C5012       C  0.13117175  0.25472041  0.64048156    -0.21100
C5013       C  0.11636271  0.22934775  0.62956979    -0.07600
C5014       C  0.11179855  0.20854286  0.64944830     0.13300
C5015       C  0.09506918  0.18055210  0.64094583    -0.24400
H5016       H  0.11915602  0.19807082  0.69406343     0.14500
H5017       H  0.13453133  0.27069028  0.62570885     0.14600
C5018       C  0.15625852  0.28703411  0.68180209    -0.24400
H5019       H  0.09453539  0.16743100  0.65938824     0.04800
H5020       H  0.10245757  0.17604399  0.61990903     0.08000
H5021       H  0.07496529  0.17610943  0.63736392     0.08000
H5022       H  0.17578999  0.29134871  0.68878025     0.08000
H5023       H  0.14642111  0.28975516  0.70184844     0.08000
H5024       H  0.15830535  0.30102356  0.66366359     0.04800
C5025       C  0.10476866  0.21020352  0.90028074    -0.21000
C5026       C  0.10535984  0.22716942  0.87749329    -0.07600
C5027       C  0.10170058  0.24786472  0.88636673     0.13300
C5028       C  0.09864234  0.25141451  0.91778703    -0.21100
C5029       C  0.09963152  0.23516817  0.94029649    -0.07600
C5030       C  0.10213558  0.21397453  0.93135685     0.13300
C5031       C  0.10153121  0.19480834  0.95438185    -0.24400
H5032       H  0.10682598  0.19389423  0.89392610     0.14500
H5033       H  0.09601238  0.26722695  0.92491751     0.14600
C5034       C  0.10127424  0.26645176  0.86332592    -0.24400
H5035       H  0.10188170  0.17843773  0.94304521     0.04800
H5036       H  0.08372326  0.18685212  0.96847039     0.08000
H5037       H  0.11865584  0.20428612  0.96945466     0.08000
H5038       H  0.08531552  0.25594705  0.84678181     0.08000
H5039       H  0.11985486  0.27655066  0.85078751     0.08000
H5040       H  0.09825476  0.28130437  0.87460167     0.04800
loop_ 
_geom_bond_atom_site_label_1 
_geom_bond_atom_site_label_2 
_geom_bond_distance 
_geom_bond_site_symmetry_2 
_ccdc_geom_bond_type 
O1           C16   1.256       .  A
O1           Al9   1.859       .  S
C2           O12   1.264       .  A
C2            O3   1.268       .  A
C2         C2490   1.460       .  S
O3           Al5   1.927       .  S
O4            C6   1.258       .  A
O4           Al5   1.900       .  S
Al5          O13   1.900       .  S
Al5          O15   1.907       .  S
Al5          O14   1.787       .  S
C6           O19   1.261       .  A
C6         C2426   1.483       .  S
O7           C17   1.260       .  A
O7           Al9   1.909       .  S
O8           C21   1.266       .  A
O8          Al18   1.905       .  S
Al9          O22   1.919       .  S
Al9          O19   1.925       .  S
Al9          O14   1.784       .  S
O10          C17   1.259       .  A
O10         Al18   1.905       .  S
O11          C20   1.256       .  A
O11         Al18   1.912       .  S
O12         Al18   1.870       .  S
O13          C20   1.254       .  A
O14         Al18   1.789       .  S
O15          C16   1.260       .  A
C16        C2506   1.482       .  S
C17        C2458   1.477       .  S
C20        C2442   1.476       .  S
C21          O22   1.268       .  A
C21        C2474   1.470       .  S
O23          C38   1.256       .  A
O23         Al31   1.865       .  S
C24          O34   1.262       .  A
C24          O25   1.269       .  A
C24        C2362   1.458       .  S
O25         Al27   1.929       .  S
O26          C28   1.257       .  A
O26         Al27   1.887       .  S
Al27         O35   1.888       .  S
Al27         O37   1.913       .  S
Al27         O36   1.784       .  S
C28          O41   1.262       .  A
C28        C2346   1.478       .  S
O29          C39   1.259       .  A
O29         Al31   1.908       .  S
O30          C43   1.264       .  A
O30         Al40   1.893       .  S
Al31         O44   1.912       .  S
Al31         O41   1.924       .  S
Al31         O36   1.781       .  S
O32          C39   1.262       .  A
O32         Al40   1.926       .  S
O33          C42   1.259       .  A
O33         Al40   1.931       .  S
O34         Al40   1.860       .  S
O35          C42   1.252       .  A
O36         Al40   1.791       .  S
O37          C38   1.260       .  A
C38        C2378   1.483       .  S
C39        C2410   1.484       .  S
C42        C2445   1.473       .  S
C43          O44   1.268       .  A
C43        C2394   1.456       .  S
O45          C60   1.254       .  A
O45         Al53   1.854       .  S
C46          O56   1.262       .  A
C46          O47   1.271       .  A
C46        C2266   1.480       .  S
O47         Al49   1.938       .  S
O48          C50   1.254       .  A
O48         Al49   1.887       .  S
Al49         O57   1.885       .  S
Al49         O59   1.931       .  S
Al49         O58   1.786       .  S
C50          O63   1.259       .  A
C50        C2250   1.479       .  S
O51          C61   1.262       .  A
O51         Al53   1.917       .  S
O52          C65   1.266       .  A
O52         Al62   1.914       .  S
Al53         O66   1.920       .  S
Al53         O63   1.922       .  S
Al53         O58   1.791       .  S
O54          C61   1.263       .  A
O54         Al62   1.903       .  S
O55          C64   1.257       .  A
O55         Al62   1.919       .  S
O56         Al62   1.873       .  S
O57          C64   1.251       .  A
O58         Al62   1.791       .  S
O59          C60   1.267       .  A
C60        C2282   1.482       .  S
C61        C2333   1.488       .  S
C64        C2314   1.499       .  S
C65          O66   1.266       .  A
C65        C2298   1.472       .  S
O67          C82   1.252       .  A
O67         Al75   1.851       .  S
C68          O78   1.261       .  A
C68          O69   1.268       .  A
C68        C2221   1.453       .  S
O69         Al71   1.925       .  S
O70          C72   1.255       .  A
O70         Al71   1.888       .  S
Al71         O79   1.887       .  S
Al71         O81   1.924       .  S
Al71         O80   1.784       .  S
C72          O85   1.261       .  A
C72        C2186   1.478       .  S
O73          C83   1.259       .  A
O73         Al75   1.906       .  S
O74          C87   1.262       .  A
O74         Al84   1.890       .  S
Al75         O88   1.921       .  S
Al75         O85   1.927       .  S
Al75         O80   1.784       .  S
O76          C83   1.263       .  A
O76         Al84   1.919       .  S
O77          C86   1.258       .  A
O77         Al84   1.923       .  S
O78         Al84   1.867       .  S
O79          C86   1.254       .  A
O80         Al84   1.790       .  S
O81          C82   1.264       .  A
C82        C2237   1.477       .  S
C83        C2205   1.485       .  S
C86        C2317   1.480       .  S
C87          O88   1.269       .  A
C87        C2397   1.459       .  S
O89         C104   1.260       .  A
O89         Al97   1.888       .  S
C90         O100   1.263       .  A
C90          O91   1.265       .  A
C90        C2154   1.483       .  S
O91       Al2613   1.922   1_554  S
O92          C94   1.254       .  A
O92         Al93   1.881       .  S
Al93        O101   1.877       .  S
Al93        O103   1.926       .  S
Al93       O2611   1.922       .  S
Al93        O102   1.783       .  S
C94         O107   1.262       .  A
C94        C2106   1.481       .  S
O95         C105   1.267       .  A
O95         Al97   1.926       .  S
O96         C109   1.265       .  A
O96        Al106   1.920       .  S
Al97        O110   1.906       .  S
Al97        O107   1.934       .  S
Al97        O102   1.789       .  S
O98         C105   1.266       .  A
O98        Al106   1.908       .  S
O99         C108   1.261       .  A
O99        Al106   1.935       .  S
O100      Al2626   1.896   1_554  S
O101        C108   1.256       .  A
O102       Al106   1.785       .  S
O103        C104   1.264       .  A
C104       C2170   1.470       .  S
C105       C4661   1.492       .  S
Al106      O2620   1.891       .  S
C108       C2122   1.500       .  S
C109        O110   1.262       .  A
C109       C2477   1.473       .  S
O111        C126   1.259       .  A
O111      Al2639   1.876   1_554  S
C112        O122   1.264       .  A
C112        O113   1.262       .  A
C112       C2074   1.488       .  S
O113       Al115   1.910       .  S
O114        C116   1.255       .  A
O114       Al115   1.886       .  S
Al115       O123   1.876       .  S
Al115       O125   1.909       .  S
Al115       O124   1.785       .  S
C116        O129   1.263       .  A
C116       C2042   1.485       .  S
O117        C127   1.264       .  A
O117       Al119   1.911       .  S
O118        C131   1.265       .  A
O118       Al128   1.918       .  S
Al119       O132   1.908       .  S
Al119       O129   1.938       .  S
Al119      O2631   1.877       .  S
Al119       O124   1.793       .  S
O120        C127   1.264       .  A
O120       Al128   1.914       .  S
O121        C130   1.262       .  A
O121       Al128   1.939       .  S
O122       Al128   1.903       .  S
O123        C130   1.252       .  A
O124       Al128   1.792       .  S
O125       C2646   1.261       .  A
C126       O2645   1.263   1_554  A
C126       C2090   1.482       .  S
C127       C2058   1.481       .  S
C130       C2125   1.490       .  S
C131        O132   1.262       .  A
C131       C4821   1.472       .  S
O133        C148   1.259       .  A
O133       Al141   1.873       .  S
C134        O144   1.262       .  A
C134        O135   1.269       .  A
C134       C1994   1.470       .  S
O135       Al137   1.931       .  S
O136        C138   1.260       .  A
O136       Al137   1.911       .  S
Al137       O145   1.933       .  S
Al137       O147   1.913       .  S
Al137       O146   1.793       .  S
C138        O151   1.259       .  A
C138       C2045   1.492       .  S
O139        C149   1.265       .  A
O139       Al141   1.933       .  S
O140        C153   1.266       .  A
O140       Al150   1.908       .  S
Al141       O154   1.910       .  S
Al141       O151   1.908       .  S
Al141       O146   1.785       .  S
O142        C149   1.257       .  A
O142       Al150   1.896       .  S
O143        C152   1.252       .  A
O143       Al150   1.889       .  S
O144       Al150   1.875       .  S
O145        C152   1.259       .  A
O146       Al150   1.781       .  S
O147        C148   1.264       .  A
C148       C2026   1.465       .  S
C149       C1962   1.489       .  S
C152       C1978   1.497       .  S
C153        O154   1.266       .  A
C153       C2010   1.480       .  S
O155        C170   1.263       .  A
O155       Al163   1.881       .  S
C156        O166   1.260       .  A
C156        O157   1.266       .  A
C156       C1901   1.476       .  S
O157       Al159   1.922       .  S
O158        C160   1.261       .  A
O158       Al159   1.921       .  S
Al159       O167   1.924       .  S
Al159       O169   1.915       .  S
Al159       O168   1.795       .  S
C160        O173   1.251       .  A
C160       C1946   1.493       .  S
O161        C171   1.264       .  A
O161       Al163   1.922       .  S
O162        C175   1.259       .  A
O162       Al172   1.893       .  S
Al163       O176   1.901       .  S
Al163       O173   1.882       .  S
Al163       O168   1.784       .  S
O164        C171   1.264       .  A
O164       Al172   1.917       .  S
O165        C174   1.254       .  A
O165       Al172   1.885       .  S
O166       Al172   1.855       .  S
O167        C174   1.258       .  A
O168       Al172   1.784       .  S
O169        C170   1.267       .  A
C170       C1933   1.466       .  S
C171       C1882   1.481       .  S
C174       C1981   1.490       .  S
C175        O176   1.258       .  A
C175       C1914   1.474       .  S
O177        C192   1.259       .  A
O177       Al185   1.877       .  S
C178        O188   1.265       .  A
C178        O179   1.270       .  A
C178       C2173   1.485       .  S
O179       Al181   1.933       .  S
O180        C182   1.261       .  A
O180       Al181   1.905       .  S
Al181       O189   1.917       .  S
Al181       O191   1.911       .  S
Al181       O190   1.785       .  S
C182        O195   1.258       .  A
C182       C1866   1.501       .  S
O183        C193   1.262       .  A
O183       Al185   1.913       .  S
O184        C197   1.264       .  A
O184       Al194   1.913       .  S
Al185       O198   1.915       .  S
Al185       O195   1.913       .  S
Al185       O190   1.785       .  S
O186        C193   1.263       .  A
O186       Al194   1.915       .  S
O187        C196   1.256       .  A
O187       Al194   1.902       .  S
O188       Al194   1.891       .  S
O189        C196   1.257       .  A
O190       Al194   1.785       .  S
O191        C192   1.265       .  A
C192       C1837   1.469       .  S
C193       C2461   1.475       .  S
C196       C1850   1.485       .  S
C197        O198   1.265       .  A
C197       C2157   1.485       .  S
O199        C214   1.263       .  A
O199       Al207   1.883       .  S
C200        O210   1.262       .  A
C200        O201   1.267       .  A
C200       C2093   1.469       .  S
O201       Al203   1.926       .  S
O202        C204   1.258       .  A
O202       Al203   1.911       .  S
Al203       O211   1.917       .  S
Al203       O213   1.911       .  S
Al203       O212   1.793       .  S
C204        O217   1.258       .  A
C204       C1818   1.489       .  S
O205        C215   1.269       .  A
O205       Al207   1.938       .  S
O206        C219   1.265       .  A
O206       Al216   1.910       .  S
Al207       O220   1.919       .  S
Al207       O217   1.912       .  S
Al207       O212   1.787       .  S
O208        C215   1.257       .  A
O208       Al216   1.897       .  S
O209        C218   1.251       .  A
O209       Al216   1.888       .  S
O210       Al216   1.882       .  S
O211        C218   1.256       .  A
O212       Al216   1.781       .  S
O213        C214   1.266       .  A
C214       C2029   1.469       .  S
C215       C2330   1.490       .  S
C218       C1853   1.478       .  S
C219        O220   1.264       .  A
C219       C2077   1.477       .  S
O221        C236   1.259       .  A
O221       Al229   1.881       .  S
C222        O232   1.262       .  A
C222        O223   1.270       .  A
C222       C1786   1.472       .  S
O223      Al2745   1.941       .  S
O224       C2746   1.260       .  A
O224      Al2745   1.910       .  S
Al225       O233   1.927       .  S
Al225       O235   1.912       .  S
Al225      O2743   1.930   1_554  S
Al225      O2744   1.912       .  S
Al225       O234   1.787       .  S
C226        O239   1.262       .  A
C226       O2744   1.262       .  A
C226       C4629   1.491   1_565  S
O227        C237   1.265       .  A
O227       Al229   1.932       .  S
O228        C241   1.261       .  A
O228       Al238   1.890       .  S
Al229       O242   1.919       .  S
Al229       O239   1.915       .  S
Al229       O234   1.782       .  S
O230        C237   1.263       .  A
O230       Al238   1.913       .  S
O231        C240   1.257       .  A
O231       Al238   1.895       .  S
O232      Al2758   1.871       .  S
O233        C240   1.260       .  A
O234       Al238   1.777       .  S
O235        C236   1.263       .  A
C236       C1834   1.467       .  S
C237       C1754   1.492       .  S
Al238      O2752   1.865   1_554  S
C240       C1773   1.497       .  S
C241        O242   1.267       .  A
C241       C1802   1.466       .  S
O243        C258   1.262   1_556  A
O243       Al251   1.887   1_556  S
C244        O254   1.261       .  A
C244        O245   1.268       .  A
C244       C1725   1.467       .  S
O245       Al247   1.922       .  S
O246        C248   1.260       .  A
O246       Al247   1.911       .  S
Al247       O255   1.920       .  S
Al247       O257   1.913       .  S
Al247       O256   1.793       .  S
C248        O261   1.255       .  A
C248       C1709   1.500       .  S
O249        C259   1.263       .  A
O249       Al251   1.917       .  S
O250       C2783   1.260   1_554  A
O250       Al260   1.899       .  S
Al251       O261   1.901       .  S
Al251      O2784   1.916   1_554  S
Al251       O256   1.787       .  S
O252        C259   1.262       .  A
O252       Al260   1.918       .  S
O253        C262   1.253       .  A
O253       Al260   1.892       .  S
O254       Al260   1.875       .  S
O255        C262   1.258       .  A
O256       Al260   1.789       .  S
O257        C258   1.265       .  A
C258       C4450   1.470   1_554  S
C259       C1693   1.476       .  S
C262       C1770   1.489       .  S
C263        O264   1.260       .  A
C263       O2770   1.260       .  A
C263       C1741   1.472       .  S
O264      Al2771   1.914       .  S
O265        C280   1.255       .  A
O265       Al273   1.874       .  S
C266        O276   1.264       .  A
C266        O267   1.264       .  A
C266       C1738   1.489       .  S
O267       Al269   1.917       .  S
O268        C270   1.255       .  A
O268       Al269   1.881       .  S
Al269       O277   1.876       .  S
Al269       O279   1.917       .  S
Al269       O278   1.779       .  S
C270        O283   1.264       .  A
C270       C1949   1.479       .  S
O271        C281   1.263       .  A
O271       Al273   1.908       .  S
O272        C285   1.264       .  A
O272       Al282   1.909       .  S
Al273       O286   1.909       .  S
Al273       O283   1.941       .  S
Al273       O278   1.787       .  S
O274        C281   1.264       .  A
O274       Al282   1.921       .  S
O275        C284   1.263       .  A
O275       Al282   1.941       .  S
O276       Al282   1.896       .  S
O277        C284   1.253       .  A
O278       Al282   1.789       .  S
O279        C280   1.261       .  A
C280       C1722   1.461       .  S
C281       C1661   1.477       .  S
C284       C1642   1.486       .  S
C285        O286   1.264       .  A
C285       C1677   1.467       .  S
O287        C302   1.266       .  A
O287       Al295   1.907       .  S
C288        O298   1.269       .  A
C288        O289   1.264       .  A
C288       C1805   1.467       .  S
O289       Al291   1.882       .  S
O290        C292   1.258       .  A
O290       Al291   1.905       .  S
Al291       O299   1.883       .  S
Al291       O301   1.910       .  S
Al291       O300   1.790       .  S
C292        O305   1.263       .  A
C292       C1869   1.482       .  S
O293        C303   1.256       .  A
O293       Al295   1.902       .  S
O294        C307   1.264       .  A
O294       Al304   1.913       .  S
Al295       O308   1.893       .  S
Al295       O305   1.929       .  S
Al295       O300   1.785       .  S
O296        C303   1.259       .  A
O296       Al304   1.897       .  S
O297        C306   1.256       .  A
O297       Al304   1.916       .  S
O298       Al304   1.923       .  S
O299        C306   1.253       .  A
O300       Al304   1.791       .  S
O301        C302   1.265       .  A
C302       C1789   1.489       .  S
C303       C1626   1.501   1_455  S
C306       C1645   1.493       .  S
C307        O308   1.262       .  A
C307       C1613   1.477       .  S
O309        C324   1.259       .  A
O309       Al317   1.880       .  S
C310        O320   1.265       .  A
C310        O311   1.267       .  A
C310       C1546   1.472       .  S
O311       Al313   1.925       .  S
O312        C314   1.254       .  A
O312       Al313   1.885       .  S
Al313       O321   1.882       .  S
Al313       O323   1.914       .  S
Al313       O322   1.788       .  S
C314        O327   1.262       .  A
C314       C1514   1.485       .  S
O315        C325   1.267       .  A
O315       Al317   1.937       .  S
O316        C329   1.268       .  A
O316       Al326   1.911       .  S
Al317       O330   1.919       .  S
Al317       O327   1.929       .  S
Al317       O322   1.791       .  S
O318        C325   1.258       .  A
O318       Al326   1.903       .  S
O319        C328   1.257       .  A
O319       Al326   1.926       .  S
O320       Al326   1.888       .  S
O321        C328   1.250       .  A
O322       Al326   1.792       .  S
O323        C324   1.262       .  A
C324       C1562   1.486       .  S
C325       C1594   1.502       .  S
C328       C1578   1.492       .  S
C329        O330   1.268       .  A
C329       C1530   1.473       .  S
O331        C346   1.257       .  A
O331       Al339   1.880       .  S
C332        O342   1.260       .  A
C332        O333   1.264       .  A
C332       C1482   1.472       .  S
O333       Al335   1.925       .  S
O334        C336   1.256       .  A
O334       Al335   1.881       .  S
Al335       O343   1.877       .  S
Al335       O345   1.924       .  S
Al335       O344   1.782       .  S
C336        O349   1.263       .  A
C336       C1469   1.475       .  S
O337        C347   1.263       .  A
O337       Al339   1.911       .  S
O338        C351   1.264       .  A
O338       Al348   1.913       .  S
Al339       O352   1.907       .  S
Al339       O349   1.932       .  S
Al339       O344   1.784       .  S
O340        C347   1.264       .  A
O340       Al348   1.921       .  S
O341        C350   1.265       .  A
O341       Al348   1.944       .  S
O342       Al348   1.890       .  S
O343        C350   1.257       .  A
O344       Al348   1.786       .  S
O345        C346   1.262       .  A
C346       C1501   1.465       .  S
C347       C1690   1.478       .  S
C350       C1581   1.495       .  S
C351        O352   1.263       .  A
C351       C1674   1.469       .  S
O353        C368   1.254       .  A
O353      Al2881   1.853   1_554  S
C354        O364   1.260       .  A
C354        O355   1.270       .  A
C354       C1434   1.487       .  S
O355       Al357   1.938       .  S
O356        C358   1.256       .  A
O356       Al357   1.890       .  S
Al357       O365   1.895       .  S
Al357       O367   1.933       .  S
Al357       O366   1.784       .  S
C358        O371   1.263       .  A
C358       C1386   1.479       .  S
O359        C369   1.263       .  A
O359       Al361   1.910       .  S
O360        C373   1.262       .  A
O360       Al370   1.904       .  S
Al361       O374   1.925       .  S
Al361       O371   1.932       .  S
Al361      O2873   1.858       .  S
Al361       O366   1.784       .  S
O362        C369   1.265       .  A
O362       Al370   1.920       .  S
O363        C372   1.259       .  A
O363       Al370   1.919       .  S
O364       Al370   1.870       .  S
O365        C372   1.255       .  A
O366       Al370   1.782       .  S
O367       C2888   1.267       .  A
C368       O2887   1.271   1_554  A
C368       C1450   1.493       .  S
C369       C1421   1.485       .  S
C372       C1402   1.479       .  S
C373        O374   1.266       .  A
C373       C4053   1.470       .  S
O375        C390   1.259       .  A
O375       Al383   1.887       .  S
C376        O386   1.261       .  A
C376        O377   1.267       .  A
C376       C1354   1.470       .  S
O377      Al2899   1.926   1_554  S
O378        C380   1.255       .  A
O378       Al379   1.887       .  S
Al379       O387   1.891       .  S
Al379       O389   1.919       .  S
Al379      O2897   1.930       .  S
Al379       O388   1.783       .  S
C380        O393   1.261       .  A
C380       C1338   1.479       .  S
O381        C391   1.266       .  A
O381       Al383   1.930       .  S
O382        C395   1.267       .  A
O382       Al392   1.917       .  S
Al383       O396   1.908       .  S
Al383       O393   1.924       .  S
Al383       O388   1.784       .  S
O384        C391   1.261       .  A
O384       Al392   1.906       .  S
O385        C394   1.259       .  A
O385       Al392   1.927       .  S
O386      Al2912   1.878   1_554  S
O387        C394   1.254       .  A
O388       Al392   1.783       .  S
O389        C390   1.263       .  A
C390       C1370   1.468       .  S
C391       C4277   1.491       .  S
Al392      O2906   1.884       .  S
C394       C1405   1.474       .  S
C395        O396   1.265       .  A
C395       C1610   1.468       .  S
O397        C412   1.270       .  A
O397       Al405   1.913       .  S
C398        O408   1.271       .  A
C398        O399   1.269       .  A
C398       C1373   1.491       .  S
O399       Al401   1.889       .  S
O400        C402   1.255       .  A
O400       Al401   1.907       .  S
Al401       O409   1.931       .  S
Al401       O411   1.905       .  S
Al401       O410   1.797       .  S
C402        O415   1.258       .  A
C402       C1322   1.479       .  S
O403        C413   1.262       .  A
O403       Al405   1.922       .  S
O404        C417   1.258       .  A
O404       Al414   1.899       .  S
Al405       O418   1.876       .  S
Al405       O415   1.918       .  S
Al405       O410   1.788       .  S
O406        C413   1.256       .  A
O406       Al414   1.882       .  S
O407        C416   1.250       .  A
O407       Al414   1.886       .  S
O408       Al414   1.929       .  S
O409        C416   1.255       .  A
O410       Al414   1.783       .  S
O411        C412   1.269       .  A
C412       C1290   1.463       .  S
C413       C1629   1.483       .  S
C416       C1306   1.483       .  S
C417        O418   1.255       .  A
C417       C1357   1.469       .  S
O419        C434   1.263       .  A
O419       Al427   1.895       .  S
C420        O430   1.261       .  A
C420        O421   1.269       .  A
C420       C1453   1.479       .  S
O421       Al423   1.945       .  S
O422        C424   1.263       .  A
O422       Al423   1.914       .  S
Al423       O431   1.924       .  S
Al423       O433   1.915       .  S
Al423       O432   1.788       .  S
C424        O437   1.258       .  A
C424       C2253   1.496       .  S
O425        C435   1.266       .  A
O425       Al427   1.933       .  S
O426        C439   1.262       .  A
O426       Al436   1.904       .  S
Al427       O440   1.909       .  S
Al427       O437   1.904       .  S
Al427       O432   1.781       .  S
O428        C435   1.264       .  A
O428       Al436   1.912       .  S
O429        C438   1.255       .  A
O429       Al436   1.896       .  S
O430       Al436   1.864       .  S
O431        C438   1.258       .  A
O432       Al436   1.782       .  S
O433        C434   1.265       .  A
C434       C1277   1.473       .  S
C435       C1597   1.498       .  S
C438       C1309   1.480       .  S
C439        O440   1.264       .  A
C439       C1437   1.468       .  S
O441        C456   1.260       .  A
O441       Al449   1.883       .  S
C442        O452   1.265       .  A
C442        O443   1.268       .  A
C442       C2285   1.464       .  S
O443       Al445   1.929       .  S
O444        C446   1.261       .  A
O444       Al445   1.908       .  S
Al445       O453   1.919       .  S
Al445       O455   1.913       .  S
Al445       O454   1.788       .  S
C446        O459   1.258       .  A
C446       C1389   1.492       .  S
O447        C457   1.263       .  A
O447       Al449   1.928       .  S
O448        C461   1.266       .  A
O448       Al458   1.912       .  S
Al449       O462   1.917       .  S
Al449       O459   1.903       .  S
Al449       O454   1.778       .  S
O450        C457   1.260       .  A
O450       Al458   1.914       .  S
O451        C460   1.253       .  A
O451       Al458   1.891       .  S
O452       Al458   1.880       .  S
O453        C460   1.259       .  A
O454       Al458   1.779       .  S
O455        C456   1.265       .  A
C456       C1274   1.476       .  S
C457       C2061   1.482       .  S
C460       C1261   1.495       .  S
C461        O462   1.267       .  A
C461       C2269   1.479       .  S
O463        C478   1.262       .  A
O463       Al471   1.890       .  S
C464        O474   1.264       .  A
C464        O465   1.267       .  A
C464       C2234   1.459       .  S
O465       Al467   1.920       .  S
O466        C468   1.260       .  A
O466       Al467   1.913       .  S
Al467       O475   1.916       .  S
Al467       O477   1.907       .  S
Al467       O476   1.789       .  S
C468        O481   1.257       .  A
C468       C1242   1.486       .  S
O469        C479   1.266       .  A
O469       Al471   1.936       .  S
O470        C483   1.268       .  A
O470       Al480   1.916       .  S
Al471       O484   1.897       .  S
Al471       O481   1.894       .  S
Al471       O476   1.778       .  S
O472        C479   1.259       .  A
O472       Al480   1.907       .  S
O473        C482   1.254       .  A
O473       Al480   1.885       .  S
O474       Al480   1.876       .  S
O475        C482   1.257       .  A
O476       Al480   1.779       .  S
O477        C478   1.263       .  A
C478       C1226   1.469       .  S
C479       C2413   1.483       .  S
C482       C1258   1.482       .  S
C483        O484   1.260       .  A
C483       C2218   1.487       .  S
O485       C3020   1.265       .  A
O485      Al3013   1.899       .  S
C486        O496   1.270       .  A
C486        O487   1.262       .  A
C486       C1194   1.472       .  S
O487       Al489   1.878       .  S
O488        C490   1.259       .  A
O488       Al489   1.917       .  S
Al489       O497   1.939       .  S
Al489       O499   1.903       .  S
Al489       O498   1.800       .  S
C490        O503   1.260       .  A
C490       C2189   1.484       .  S
O491        C501   1.259       .  A
O491       Al493   1.917       .  S
O492       C3025   1.262   1_554  A
O492       Al502   1.916       .  S
Al493       O503   1.912       .  S
Al493      O3005   1.899       .  S
Al493      O3026   1.877   1_554  S
Al493       O498   1.792       .  S
O494        C501   1.255       .  A
O494       Al502   1.881       .  S
O495        C504   1.250       .  A
O495       Al502   1.882       .  S
O496       Al502   1.936       .  S
O497        C504   1.259       .  A
O498       Al502   1.787       .  S
O499        C500   1.266       .  A
C500       O3005   1.265       .  A
C500       C3749   1.459   1_554  S
C501       C1165   1.478       .  S
C504       C1178   1.497       .  S
C505        O506   1.255       .  A
C505       O3012   1.263       .  A
C505       C1210   1.476       .  S
O506      Al3013   1.872       .  S
O507        C522   1.260       .  A
O507       Al515   1.879       .  S
C508        O518   1.263       .  A
C508        O509   1.270       .  A
C508       C1133   1.467       .  S
O509      Al3031   1.933       .  S
O510       C3032   1.257       .  A
O510      Al3031   1.902       .  S
Al511       O519   1.920       .  S
Al511       O521   1.920       .  S
Al511      O3029   1.931   1_554  S
Al511      O3030   1.907       .  S
Al511       O520   1.789       .  S
C512        O525   1.255       .  A
C512       O3030   1.258       .  A
C512       C3861   1.480       .  S
O513        C523   1.265       .  A
O513       Al515   1.931       .  S
O514        C527   1.269       .  A
O514       Al524   1.919       .  S
Al515       O528   1.890       .  S
Al515       O525   1.891       .  S
Al515       O520   1.783       .  S
O516        C523   1.258       .  A
O516       Al524   1.897       .  S
O517        C526   1.255       .  A
O517       Al524   1.900       .  S
O518      Al3044   1.872       .  S
O519        C526   1.257       .  A
O520       Al524   1.781       .  S
O521        C522   1.265       .  A
C522       C1293   1.470       .  S
C523       C1114   1.487       .  S
Al524      O3038   1.877   1_554  S
C526       C1181   1.486       .  S
C527        O528   1.259       .  A
C527       C1146   1.484       .  S
O529        C544   1.260       .  A
O529       Al537   1.880       .  S
C530        O540   1.262       .  A
C530        O531   1.269       .  A
C530       C1066   1.464       .  S
O531       Al533   1.928       .  S
O532        C534   1.259       .  A
O532       Al533   1.898       .  S
Al533       O541   1.908       .  S
Al533       O543   1.906       .  S
Al533       O542   1.785       .  S
C534        O547   1.259       .  A
C534       C2429   1.505       .  S
O535        C545   1.264       .  A
O535       Al537   1.921       .  S
O536        C549   1.263       .  A
O536       Al546   1.903       .  S
Al537       O550   1.921       .  S
Al537       O547   1.920       .  S
Al537       O542   1.784       .  S
O538        C545   1.263       .  A
O538       Al546   1.918       .  S
O539        C548   1.255       .  A
O539       Al546   1.908       .  S
O540       Al546   1.875       .  S
O541        C548   1.254       .  A
O542       Al546   1.789       .  S
O543        C544   1.264       .  A
C544       C1098   1.467       .  S
C545       C1034   1.484       .  S
C548       C1050   1.478       .  S
C549        O550   1.266       .  A
C549       C1082   1.477       .  S
O551        C566   1.263       .  A
O551       Al559   1.882       .  S
C552        O562   1.261       .  A
C552        O553   1.268       .  A
C552       C1002   1.471       .  S
O553       Al555   1.933       .  S
O554        C556   1.260       .  A
O554       Al555   1.916       .  S
Al555       O563   1.920       .  S
Al555       O565   1.915       .  S
Al555       O564   1.788       .  S
C556        O569   1.257       .  A
C556       C1517   1.489       .  S
O557        C567   1.268       .  A
O557       Al559   1.930       .  S
O558        C571   1.264       .  A
O558       Al568   1.916       .  S
Al559       O572   1.916       .  S
Al559       O569   1.908       .  S
Al559       O564   1.784       .  S
O560        C567   1.261       .  A
O560       Al568   1.908       .  S
O561        C570   1.252       .  A
O561       Al568   1.892       .  S
O562       Al568   1.878       .  S
O563        C570   1.257       .  A
O564       Al568   1.782       .  S
O565        C566   1.267       .  A
C566        C989   1.472       .  S
C567        C970   1.488       .  S
C570       C1053   1.477       .  S
C571        O572   1.265       .  A
C571       C1018   1.484       .  S
O573        C588   1.260       .  A
O573       Al581   1.874       .  S
C574        O584   1.261       .  A
C574        O575   1.265       .  A
C574       C2509   1.462       .  S
O575      Al3097   1.909       .  S
O576       C3098   1.258       .  A
O576      Al3097   1.908       .  S
Al577       O585   1.913       .  S
Al577       O587   1.911       .  S
Al577      O3095   1.917   1_554  S
Al577      O3096   1.909       .  S
Al577       O586   1.795       .  S
C578        O591   1.252       .  A
C578       O3096   1.259       .  A
C578        C957   1.491       .  S
O579        C589   1.265       .  A
O579       Al581   1.924       .  S
O580        C593   1.266       .  A
O580       Al590   1.919       .  S
Al581       O594   1.882       .  S
Al581       O591   1.886       .  S
Al581       O586   1.785       .  S
O582        C589   1.260       .  A
O582       Al590   1.903       .  S
O583        C592   1.252       .  A
O583       Al590   1.887       .  S
O584      Al3110   1.870       .  S
O585        C592   1.256       .  A
O586       Al590   1.785       .  S
O587        C588   1.266       .  A
C588       C1101   1.463       .  S
C589       C2138   1.485       .  S
Al590      O3104   1.875   1_554  S
C592        C941   1.481       .  S
C593        O594   1.255       .  A
C593       C2493   1.484       .  S
O595       C3130   1.261       .  A
O595      Al3123   1.881       .  S
C596        O606   1.264       .  A
C596        O597   1.268       .  A
C596       C2381   1.466       .  S
O597       Al599   1.927       .  S
O598        C600   1.258       .  A
O598       Al599   1.908       .  S
Al599       O607   1.925       .  S
Al599       O609   1.914       .  S
Al599       O608   1.795       .  S
C600        O613   1.255       .  A
C600       C1466   1.485       .  S
O601        C611   1.265       .  A
O601       Al603   1.938       .  S
O602       C3135   1.268   1_554  A
O602       Al612   1.912       .  S
Al603       O613   1.885       .  S
Al603      O3115   1.891       .  S
Al603      O3136   1.893   1_554  S
Al603       O608   1.785       .  S
O604        C611   1.256       .  A
O604       Al612   1.896       .  S
O605        C614   1.251       .  A
O605       Al612   1.883       .  S
O606       Al612   1.876       .  S
O607        C614   1.257       .  A
O608       Al612   1.784       .  S
O609        C610   1.264       .  A
C610       O3115   1.263       .  A
C610       C3442   1.476   1_554  S
C611       C2202   1.489       .  S
C614        C938   1.487       .  S
C615        O616   1.261       .  A
C615       O3122   1.266       .  A
C615       C2365   1.475       .  S
O616      Al3123   1.891       .  S
O617        C632   1.260       .  A
O617       Al625   1.882       .  S
C618        O628   1.263       .  A
C618        O619   1.267       .  A
C618       C1565   1.470       .  S
O619       Al621   1.927       .  S
O620        C622   1.262       .  A
O620       Al621   1.916       .  S
Al621       O629   1.921       .  S
Al621       O631   1.905       .  S
Al621       O630   1.789       .  S
C622        O635   1.257       .  A
C622        C906   1.495       .  S
O623        C633   1.264       .  A
O623       Al625   1.928       .  S
O624        C637   1.267       .  A
O624       Al634   1.918       .  S
Al625       O638   1.903       .  S
Al625       O635   1.902       .  S
Al625       O630   1.782       .  S
O626        C633   1.260       .  A
O626       Al634   1.907       .  S
O627        C636   1.257       .  A
O627       Al634   1.907       .  S
O628       Al634   1.881       .  S
O629        C636   1.258       .  A
O630       Al634   1.782       .  S
O631        C632   1.262       .  A
C632        C986   1.464       .  S
C633       C1418   1.485       .  S
C636        C890   1.493       .  S
C637        O638   1.264       .  A
C637       C1549   1.485       .  S
O639        C654   1.264       .  A
O639       Al647   1.906       .  S
C640        O650   1.269       .  A
C640        O641   1.260       .  A
C640       C1498   1.487       .  S
O641       Al643   1.880       .  S
O642        C644   1.263       .  A
O642       Al643   1.914       .  S
Al643       O651   1.937       .  S
Al643       O653   1.909       .  S
Al643       O652   1.792       .  S
C644        O657   1.262       .  A
C644       C2349   1.490       .  S
O645        C655   1.260       .  A
O645       Al647   1.922       .  S
O646        C659   1.265       .  A
O646       Al656   1.926       .  S
Al647       O660   1.877       .  S
Al647       O657   1.910       .  S
Al647       O652   1.792       .  S
O648        C655   1.255       .  A
O648       Al656   1.889       .  S
O649        C658   1.255       .  A
O649       Al656   1.895       .  S
O650       Al656   1.926       .  S
O651        C658   1.262       .  A
O652       Al656   1.784       .  S
O653        C654   1.265       .  A
C654        C925   1.464       .  S
C655       C1658   1.479       .  S
C658        C893   1.502       .  S
C659        O660   1.257       .  A
C659       C1485   1.476       .  S
O661        C676   1.258       .  A
O661       Al669   1.870       .  S
C662        O672   1.262       .  A
C662        O663   1.266       .  A
C662       C1149   1.461       .  S
O663       Al665   1.923       .  S
O664        C666   1.256       .  A
O664       Al665   1.888       .  S
Al665       O673   1.885       .  S
Al665       O675   1.916       .  S
Al665       O674   1.784       .  S
C666        O679   1.262       .  A
C666       C1325   1.488       .  S
O667        C677   1.262       .  A
O667       Al669   1.917       .  S
O668        C681   1.265       .  A
O668       Al678   1.902       .  S
Al669       O682   1.919       .  S
Al669       O679   1.930       .  S
Al669       O674   1.785       .  S
O670        C677   1.260       .  A
O670       Al678   1.909       .  S
O671        C680   1.258       .  A
O671       Al678   1.924       .  S
O672       Al678   1.874       .  S
O673        C680   1.253       .  A
O674       Al678   1.791       .  S
O675        C676   1.262       .  A
C676       C1130   1.482       .  S
C677       C1037   1.484   1_565  S
C680        C874   1.487       .  S
C681        O682   1.268       .  A
C681        C861   1.466       .  S
O683        C698   1.257       .  A
O683       Al691   1.877       .  S
C684        O694   1.262       .  A
C684        O685   1.267       .  A
C684       C1213   1.468       .  S
O685       Al687   1.929       .  S
O686        C688   1.255       .  A
O686       Al687   1.882       .  S
Al687       O695   1.875       .  S
Al687       O697   1.917       .  S
Al687       O696   1.781       .  S
C688        O701   1.263       .  A
C688       C1245   1.480       .  S
O689        C699   1.263       .  A
O689       Al691   1.917       .  S
O690        C703   1.265       .  A
O690       Al700   1.904       .  S
Al691       O704   1.914       .  S
Al691       O701   1.933       .  S
Al691       O696   1.787       .  S
O692        C699   1.261       .  A
O692       Al700   1.911       .  S
O693        C702   1.260       .  A
O693       Al700   1.933       .  S
O694       Al700   1.885       .  S
O695        C702   1.253       .  A
O696       Al700   1.790       .  S
O697        C698   1.262       .  A
C698       C1197   1.474       .  S
C699       C1885   1.483       .  S
C702        C877   1.490       .  S
C703        O704   1.268       .  A
C703        C842   1.469       .  S
O705        C720   1.257       .  A
O705       Al713   1.867       .  S
C706        O716   1.263       .  A
C706        O707   1.267       .  A
C706       C2013   1.474       .  S
O707       Al709   1.924       .  S
O708        C710   1.255       .  A
O708       Al709   1.883       .  S
Al709       O717   1.878       .  S
Al709       O719   1.919       .  S
Al709       O718   1.785       .  S
C710        O723   1.264       .  A
C710       C1821   1.484       .  S
O711        C721   1.262       .  A
O711       Al713   1.926       .  S
O712        C725   1.268       .  A
O712       Al722   1.914       .  S
Al713       O726   1.929       .  S
Al713       O723   1.933       .  S
Al713       O718   1.784       .  S
O714        C721   1.260       .  A
O714       Al722   1.891       .  S
O715        C724   1.257       .  A
O715       Al722   1.920       .  S
O716       Al722   1.884       .  S
O717        C724   1.254       .  A
O718       Al722   1.788       .  S
O719        C720   1.261       .  A
C720       C1997   1.486       .  S
C721        C973   1.485       .  S
C724        C826   1.489       .  S
C725        O726   1.269       .  A
C725        C810   1.478       .  S
O727        C742   1.254       .  A
O727       Al735   1.856       .  S
C728        O738   1.263       .  A
C728        O729   1.269       .  A
C728       C1917   1.474       .  S
O729       Al731   1.929       .  S
O730        C732   1.252       .  A
O730       Al731   1.879       .  S
Al731       O739   1.873       .  S
Al731       O741   1.920       .  S
Al731       O740   1.784       .  S
C732        O745   1.260       .  A
C732       C1706   1.477       .  S
O733        C743   1.263       .  A
O733       Al735   1.912       .  S
O734        C747   1.265       .  A
O734       Al744   1.912       .  S
Al735       O748   1.919       .  S
Al735       O745   1.928       .  S
Al735       O740   1.785       .  S
O736        C743   1.264       .  A
O736       Al744   1.912       .  S
O737        C746   1.256       .  A
O737       Al744   1.918       .  S
O738       Al744   1.869       .  S
O739        C746   1.249       .  A
O740       Al744   1.789       .  S
O741        C742   1.266       .  A
C742       C1898   1.484       .  S
C743       C1162   1.490       .  S
C746        C829   1.477       .  S
C747        O748   1.267       .  A
C747        C845   1.471       .  S
O749        C764   1.256       .  A
O749       Al757   1.872       .  S
C750        O760   1.261       .  A
C750        O751   1.266       .  A
C750       C1085   1.484       .  S
O751      Al3273   1.920   1_554  S
O752        C754   1.255       .  A
O752       Al753   1.883       .  S
Al753       O761   1.872       .  S
Al753       O763   1.915       .  S
Al753      O3271   1.925       .  S
Al753       O762   1.781       .  S
C754        O767   1.261       .  A
C754        C954   1.474       .  S
O755        C765   1.263       .  A
O755       Al757   1.910       .  S
O756        C769   1.263       .  A
O756       Al766   1.908       .  S
Al757       O770   1.907       .  S
Al757       O767   1.926       .  S
Al757       O762   1.789       .  S
O758        C765   1.265       .  A
O758       Al766   1.915       .  S
O759        C768   1.261       .  A
O759       Al766   1.930       .  S
O760      Al3286   1.888   1_554  S
O761        C768   1.254       .  A
O762       Al766   1.785       .  S
O763        C764   1.262       .  A
C764       C1069   1.461       .  S
C765       C3637   1.487       .  S
Al766      O3280   1.886       .  S
C768        C797   1.494       .  S
C769        O770   1.263       .  A
C769        C858   1.464       .  S
O771        C786   1.260       .  A
O771      Al3299   1.877   1_554  S
C772        O782   1.262       .  A
C772        O773   1.265       .  A
C772       C1021   1.485       .  S
O773       Al775   1.924       .  S
O774        C776   1.254       .  A
O774       Al775   1.886       .  S
Al775       O783   1.876       .  S
Al775       O785   1.923       .  S
Al775       O784   1.784       .  S
C776        O789   1.262       .  A
C776        C909   1.480       .  S
O777        C787   1.266       .  A
O777       Al779   1.918       .  S
O778        C791   1.264       .  A
O778       Al788   1.917       .  S
Al779       O792   1.917       .  S
Al779       O789   1.933       .  S
Al779      O3291   1.880       .  S
Al779       O784   1.788       .  S
O780        C787   1.266       .  A
O780       Al788   1.912       .  S
O781        C790   1.260       .  A
O781       Al788   1.924       .  S
O782       Al788   1.891       .  S
O783        C790   1.252       .  A
O784       Al788   1.786       .  S
O785       C3306   1.264       .  A
C786       O3305   1.265   1_554  A
C786       C1005   1.483       .  S
C787       C1965   1.491       .  S
C790        C794   1.480       .  S
C791        O792   1.263       .  A
C791       C3333   1.474       .  S
C793        C794   1.403       .  A
C793        C798   1.410       .  A
C793        H800   1.084       .  S
C794        C795   1.414       .  A
C795        C796   1.397       .  A
C795        C802   1.511       .  S
C796        C797   1.407       .  A
C796        H801   1.083       .  S
C797        C798   1.421       .  A
C798        C799   1.507       .  S
C799        H803   1.111       .  S
C799        H804   1.110       .  S
C799        H805   1.110       .  S
C802        H806   1.109       .  S
C802        H807   1.110       .  S
C802        H808   1.111       .  S
C809        C810   1.405       .  A
C809        C814   1.409       .  A
C809        H816   1.083       .  S
C810        C811   1.412       .  A
C811        C812   1.403       .  A
C811        C818   1.505       .  S
C812        C813   1.402       .  A
C812        H817   1.085   1_554  S
C813       C3311   1.472   1_554  S
C813        C814   1.410       .  A
C814        C815   1.506       .  S
C815        H819   1.110       .  S
C815        H821   1.110       .  S
C815       H3340   1.111       .  S
C818        H822   1.106       .  S
C818        H823   1.110       .  S
C818        H824   1.111   1_554  S
H820       C3335   1.110       .  S
C825        C826   1.405       .  A
C825        C830   1.396   1_545  A
C825        H832   1.084       .  S
C826        C827   1.421       .  A
C827        C828   1.408   1_545  A
C827        C834   1.507       .  S
C828        C829   1.402       .  A
C828        H833   1.084       .  S
C829        C830   1.415       .  A
C830        C831   1.510       .  S
C831        H835   1.111       .  S
C831        H836   1.109       .  S
C831        H837   1.109       .  S
C834        H838   1.110       .  S
C834        H839   1.110       .  S
C834        H840   1.111       .  S
C841        C842   1.399       .  A
C841        C846   1.398       .  A
C841        H848   1.085       .  S
C842        C843   1.412       .  A
C843        C844   1.408       .  A
C843        C850   1.505       .  S
C844        C845   1.403       .  A
C844        H849   1.084       .  S
C845        C846   1.412       .  A
C846        C847   1.508       .  S
C847        H851   1.111       .  S
C847        H852   1.110       .  S
C847        H853   1.107       .  S
C850        H854   1.110       .  S
C850        H855   1.111       .  S
C850        H856   1.111       .  S
C857        C858   1.401   1_565  A
C857        C862   1.401       .  A
C857        H864   1.085       .  S
C858        C859   1.410       .  A
C859        C860   1.404       .  A
C859        C866   1.506       .  S
C860        C861   1.402   1_545  A
C860        H865   1.084       .  S
C861        C862   1.410       .  A
C862        C863   1.506       .  S
C863        H867   1.111       .  S
C863        H868   1.108       .  S
C863        H869   1.110       .  S
C866        H870   1.110       .  S
C866        H871   1.110       .  S
C866        H872   1.111       .  S
C873        C874   1.407       .  A
C873        C878   1.411       .  A
C873        H880   1.084       .  S
C874        C875   1.417       .  A
C875        C876   1.399       .  A
C875        C882   1.510       .  S
C876        C877   1.405       .  A
C876        H881   1.084       .  S
C877        C878   1.417       .  A
C878        C879   1.506       .  S
C879        H883   1.111       .  S
C879        H884   1.110       .  S
C879        H885   1.111       .  S
C882        H886   1.109       .  S
C882        H887   1.110       .  S
C882        H888   1.111       .  S
C889        C890   1.403       .  A
C889        C894   1.405   1_655  A
C889        H896   1.084       .  S
C890        C891   1.415       .  A
C891        C892   1.414   1_655  A
C891        C898   1.506       .  S
C892        C893   1.410       .  A
C892        H897   1.084       .  S
C893        C894   1.420       .  A
C894        C895   1.506       .  S
C895        H899   1.111       .  S
C895        H900   1.109       .  S
C895        H901   1.110       .  S
C898        H902   1.110       .  S
C898        H903   1.110       .  S
C898        H904   1.111       .  S
C905        C906   1.406       .  A
C905        C910   1.409       .  A
C905        H912   1.084       .  S
C906        C907   1.425       .  A
C907        C908   1.407       .  A
C907        C914   1.509       .  S
C908        C909   1.399       .  A
C908        H913   1.085       .  S
C909        C910   1.413       .  A
C910        C911   1.507       .  S
C911        H917   1.110       .  S
C911       H3435   1.111       .  S
C911       H3436   1.110       .  S
C914        H918   1.108       .  S
C914        H919   1.110       .  S
C914        H920   1.111       .  S
H915       C3431   1.111   1_554  S
H916       C3431   1.110       .  S
C921        C922   1.400       .  A
C921        C926   1.396       .  A
C921        H928   1.085       .  S
C922       C3130   1.471       .  S
C922        C923   1.415       .  A
C923        C924   1.406       .  A
C923       C3450   1.507       .  S
C924        C925   1.401       .  A
C924        H929   1.084       .  S
C925        C926   1.413       .  A
C926        C927   1.507       .  S
C927        H931   1.111       .  S
C927        H932   1.110       .  S
C927        H933   1.106       .  S
C930       C3443   1.507   1_554  S
C930        H934   1.108       .  S
C930        H935   1.110       .  S
C930        H936   1.111       .  S
C937        C938   1.407       .  A
C937        C942   1.413       .  A
C937        H944   1.084       .  S
C938        C939   1.418       .  A
C939        C940   1.401       .  A
C939        C946   1.510       .  S
C940        C941   1.400       .  A
C940        H945   1.085       .  S
C941        C942   1.414       .  A
C942        C943   1.505   1_554  S
C943        H947   1.111       .  S
C943        H948   1.110   1_556  S
C943        H949   1.111       .  S
C946        H950   1.110       .  S
C946        H951   1.109       .  S
C946        H952   1.111       .  S
C953        C958   1.407       .  A
C953       C3474   1.398   1_554  A
C953        H960   1.084       .  S
C954        C955   1.413       .  A
C954       C3473   1.397       .  A
C955        C956   1.407       .  A
C955        C962   1.506       .  S
C956       C3477   1.405       .  A
C956        H961   1.084   1_655  S
C957        C958   1.426   1_455  A
C957       C3476   1.404   1_454  A
C958        C959   1.509       .  S
C959        H963   1.111       .  S
C959        H964   1.109       .  S
C959        H965   1.110   1_655  S
C962        H966   1.110       .  S
C962        H967   1.110       .  S
C962        H968   1.111       .  S
C969        C970   1.410       .  A
C969        C974   1.417       .  A
C969        H976   1.084       .  S
C970        C971   1.420       .  A
C971        C972   1.393       .  A
C971        C978   1.512       .  S
C972        C973   1.400       .  A
C972        H977   1.084       .  S
C973        C974   1.413       .  A
C974        C975   1.503       .  S
C975        H979   1.111       .  S
C975        H980   1.108       .  S
C975        H981   1.110       .  S
C978        H982   1.108       .  S
C978        H983   1.105       .  S
C978        H984   1.110       .  S
C985        C986   1.401       .  A
C985        C990   1.399       .  A
C985        H992   1.085       .  S
C986        C987   1.411       .  A
C987        C988   1.399       .  A
C987        C994   1.508       .  S
C988        C989   1.405       .  A
C988        H993   1.085       .  S
C989        C990   1.415       .  A
C990        C991   1.508       .  S
C991        H995   1.111       .  S
C991        H996   1.108       .  S
C991        H997   1.109       .  S
C994        H998   1.109       .  S
C994        H999   1.110       .  S
C994       H1000   1.110       .  S
C1001      C1002   1.402       .  A
C1001      C1006   1.412       .  A
C1001      H1008   1.084       .  S
C1002      C1003   1.413       .  A
C1003      C1004   1.394       .  A
C1003      C1010   1.508       .  S
C1004      C1005   1.401       .  A
C1004      H1009   1.085       .  S
C1005      C1006   1.419       .  A
C1006      C1007   1.506       .  S
C1007      H1011   1.111       .  S
C1007      H1012   1.110       .  S
C1007      H1013   1.110       .  S
C1010      H1014   1.107       .  S
C1010      H1015   1.107       .  S
C1010      H1016   1.109       .  S
C1017      C1018   1.403       .  A
C1017      C1022   1.400       .  A
C1017      H1024   1.084       .  S
C1018      C1019   1.415       .  A
C1019      C1020   1.410       .  A
C1019      C1026   1.507       .  S
C1020      C1021   1.408       .  A
C1020      H1025   1.084       .  S
C1021      C1022   1.416       .  A
C1022      C1023   1.508       .  S
C1023      H1027   1.111       .  S
C1023      H1028   1.111       .  S
C1023      H1029   1.108       .  S
C1026      H1030   1.108       .  S
C1026      H1031   1.110       .  S
C1026      H1032   1.111       .  S
C1033      C1034   1.404       .  A
C1033      C1038   1.402       .  A
C1033      H1040   1.085       .  S
C1034      C1035   1.413       .  A
C1035      C1036   1.412       .  A
C1035      C1042   1.505       .  S
C1036      C1037   1.407       .  A
C1036      H1041   1.084       .  S
C1037      C1038   1.416       .  A
C1038      C1039   1.510   1_545  S
C1039      H1043   1.111   1_565  S
C1039      H1044   1.108       .  S
C1039      H1045   1.110       .  S
C1042      H1046   1.110       .  S
C1042      H1047   1.110       .  S
C1042      H1048   1.111       .  S
C1049      C1050   1.402       .  A
C1049      C1054   1.407       .  A
C1049      H1056   1.083       .  S
C1050      C1051   1.413       .  A
C1051      C1052   1.408       .  A
C1051      C1058   1.506       .  S
C1052      C1053   1.403       .  A
C1052      H1057   1.083       .  S
C1053      C1054   1.413       .  A
C1054      C1055   1.507       .  S
C1055      H1059   1.111       .  S
C1055      H1060   1.110       .  S
C1055      H1061   1.110       .  S
C1058      H1062   1.110       .  S
C1058      H1063   1.110       .  S
C1058      H1064   1.111       .  S
C1065      C1066   1.401       .  A
C1065      C1070   1.404       .  A
C1065      H1072   1.084       .  S
C1066      C1067   1.411       .  A
C1067      C1068   1.396       .  A
C1067      C1074   1.503       .  S
C1068      C1069   1.396       .  A
C1068      H1073   1.084       .  S
C1069      C1070   1.411       .  A
C1070      C1071   1.506       .  S
C1071      H1075   1.111       .  S
C1071      H1076   1.109       .  S
C1071      H1077   1.110       .  S
C1074      H1078   1.106       .  S
C1074      H1079   1.110       .  S
C1074      H1080   1.111       .  S
C1081      C1082   1.401       .  A
C1081      C1086   1.400       .  A
C1081      H1088   1.085       .  S
C1082      C1083   1.413       .  A
C1083      C1084   1.406       .  A
C1083      C1090   1.506       .  S
C1084      C1085   1.407       .  A
C1084      H1089   1.084       .  S
C1085      C1086   1.417       .  A
C1086      C1087   1.506       .  S
C1087      H1091   1.111       .  S
C1087      H1092   1.110       .  S
C1087      H1093   1.109       .  S
C1090      H1094   1.108       .  S
C1090      H1095   1.110       .  S
C1090      H1096   1.111       .  S
C1097      C1098   1.403   1_455  A
C1097      C1102   1.399       .  A
C1097      H1104   1.085       .  S
C1098      C1099   1.413       .  A
C1099      C1100   1.399       .  A
C1099      C1106   1.507       .  S
C1100      C1101   1.401   1_655  A
C1100      H1105   1.085       .  S
C1101      C1102   1.411       .  A
C1102      C1103   1.509       .  S
C1103      H1107   1.111       .  S
C1103      H1108   1.110       .  S
C1103      H1109   1.109       .  S
C1106      H1110   1.108       .  S
C1106      H1111   1.109       .  S
C1106      H1112   1.111       .  S
C1113      C1114   1.407       .  A
C1113      C3638   1.415   1_554  A
C1113      H3640   1.084   1_554  S
C1114      C1115   1.420       .  A
C1115      C1116   1.395       .  A
C1115      C1122   1.512       .  S
C1116      C1117   1.400   1_565  A
C1116      H1121   1.082   1_565  S
C1117      C3285   1.488   1_554  S
C1117      C3638   1.417   1_544  A
C1118      C3633   1.415       .  A
C1118      C3637   1.418   1_565  A
C1118      C1119   1.505   1_565  S
C1119      H1123   1.111   1_545  S
C1119      H1124   1.110       .  S
C1119      H1125   1.111       .  S
H1120      C3633   1.083       .  S
C1122      H1126   1.105       .  S
C1122      H1127   1.109       .  S
C1122      H1128   1.111       .  S
C1129      C1130   1.404       .  A
C1129      C1134   1.394       .  A
C1129      H1136   1.084       .  S
C1130      C1131   1.420       .  A
C1131      C1132   1.409       .  A
C1131      C1138   1.506       .  S
C1132      C1133   1.400       .  A
C1132      H1137   1.084       .  S
C1133      C1134   1.410       .  A
C1134      C1135   1.508       .  S
C1135      H1139   1.111       .  S
C1135      H1140   1.109       .  S
C1135      H1141   1.107       .  S
C1138      H1142   1.110       .  S
C1138      H1143   1.110       .  S
C1138      H1144   1.111       .  S
C1145      C1146   1.408       .  A
C1145      C1150   1.406       .  A
C1145      H1152   1.084       .  S
C1146      C1147   1.427       .  A
C1147      C1148   1.394       .  A
C1147      C1154   1.514       .  S
C1148      C1149   1.393       .  A
C1148      H1153   1.085       .  S
C1149      C1150   1.408       .  A
C1150      C1151   1.506       .  S
C1151      H1155   1.111       .  S
C1151      H1156   1.110       .  S
C1151      H1157   1.110       .  S
C1154      H1158   1.106       .  S
C1154      H1159   1.110       .  S
C1154      H1160   1.111       .  S
C1161      C1162   1.404       .  A
C1161      C1166   1.399       .  A
C1161      H1168   1.084       .  S
C1162      C1163   1.421       .  A
C1163      C1164   1.412       .  A
C1163      C1170   1.506       .  S
C1164      C1165   1.402       .  A
C1164      H1169   1.084       .  S
C1165      C1166   1.413       .  A
C1166      C1167   1.509       .  S
C1167      H1171   1.111       .  S
C1167      H1172   1.109       .  S
C1167      H1173   1.109       .  S
C1170      H1174   1.110       .  S
C1170      H1175   1.110       .  S
C1170      H1176   1.111       .  S
C1177      C1178   1.410       .  A
C1177      C1182   1.414       .  A
C1177      H1184   1.084       .  S
C1178      C1179   1.420       .  A
C1179      C1180   1.403       .  A
C1179      C1186   1.508   1_554  S
C1180      C1181   1.401       .  A
C1180      H1185   1.085   1_554  S
C1181      C1182   1.413       .  A
C1182      C1183   1.505       .  S
C1183      H1187   1.111       .  S
C1183      H1188   1.111       .  S
C1183      H1189   1.110       .  S
C1186      H1190   1.109       .  S
C1186      H3711   1.111       .  S
C1186      H3712   1.111       .  S
H1191      C3706   1.111       .  S
H1192      C3706   1.111       .  S
C1193      C1194   1.401       .  A
C1193      C1198   1.408       .  A
C1193      H1200   1.084       .  S
C1194      C1195   1.414       .  A
C1195      C1196   1.399       .  A
C1195      C1202   1.508       .  S
C1196      C1197   1.400       .  A
C1196      H1201   1.085       .  S
C1197      C1198   1.415       .  A
C1198      C1199   1.507       .  S
C1199      H1203   1.111       .  S
C1199      H1204   1.110       .  S
C1199      H1205   1.111       .  S
C1202      H1206   1.106       .  S
C1202      H1207   1.111       .  S
C1202      H1208   1.111       .  S
C1209      C1210   1.405       .  A
C1209      C1214   1.407       .  A
C1209      H1216   1.082       .  S
C1210      C1211   1.416       .  A
C1211      C1212   1.398       .  A
C1211      C1218   1.510       .  S
C1212      C1213   1.398       .  A
C1212      H1217   1.084       .  S
C1213      C1214   1.410       .  A
C1214      C1215   1.506       .  S
C1215      H1219   1.111       .  S
C1215      H1220   1.110       .  S
C1215      H1221   1.110       .  S
C1218      H1222   1.109       .  S
C1218      H1223   1.109       .  S
C1218      H1224   1.111       .  S
C1225      C1226   1.403       .  A
C1225      C1230   1.400       .  A
C1225      H1232   1.084       .  S
C1226      C1227   1.413       .  A
C1227      C1228   1.401       .  A
C1227      C1234   1.508       .  S
C1228      C1229   1.401       .  A
C1228      H3753   1.085       .  S
C1229      C3020   1.458       .  S
C1229      C1230   1.408       .  A
C1230      C1231   1.507       .  S
C1231      H1235   1.111       .  S
C1231      H1236   1.110       .  S
C1231      H1237   1.109       .  S
H1233      C3748   1.085   1_554  S
C1234      H1238   1.110       .  S
C1234      H1239   1.108       .  S
C1234      H1240   1.111       .  S
C1241      C1242   1.407       .  A
C1241      C1246   1.403       .  A
C1241      H1248   1.084       .  S
C1242      C1243   1.414       .  A
C1243      C1244   1.411       .  A
C1243      C1250   1.507       .  S
C1244      C1245   1.406       .  A
C1244      H1249   1.084       .  S
C1245      C1246   1.411       .  A
C1246      C1247   1.507       .  S
C1247      H1251   1.111       .  S
C1247      H1252   1.110       .  S
C1247      H1253   1.109       .  S
C1250      H1254   1.111       .  S
C1250      H1255   1.109       .  S
C1250      H1256   1.111       .  S
C1257      C1258   1.400       .  A
C1257      C1262   1.399       .  A
C1257      H1264   1.085       .  S
C1258      C1259   1.412       .  A
C1259      C1260   1.412       .  A
C1259      C1266   1.505       .  S
C1260      C1261   1.411       .  A
C1260      H1265   1.084       .  S
C1261      C1262   1.424       .  A
C1262      C1263   1.511       .  S
C1263      H1267   1.111       .  S
C1263      H1268   1.108       .  S
C1263      H1269   1.110       .  S
C1266      H1270   1.110       .  S
C1266      H1271   1.111       .  S
C1266      H1272   1.111       .  S
C1273      C1274   1.405       .  A
C1273      C1278   1.402       .  A
C1273      H1280   1.084       .  S
C1274      C1275   1.415       .  A
C1275      C1276   1.402       .  A
C1275      C1282   1.509       .  S
C1276      C1277   1.402       .  A
C1276      H1281   1.085       .  S
C1277      C1278   1.411       .  A
C1278      C1279   1.505       .  S
C1279      H1283   1.111       .  S
C1279      H1284   1.110       .  S
C1279      H1285   1.109       .  S
C1282      H1286   1.108       .  S
C1282      H1287   1.109       .  S
C1282      H1288   1.111       .  S
C1289      C1290   1.401       .  A
C1289      C1294   1.403       .  A
C1289      H1296   1.085       .  S
C1290      C1291   1.413       .  A
C1291      C1292   1.400       .  A
C1291      C1298   1.508       .  S
C1292      C1293   1.402       .  A
C1292      H1297   1.085       .  S
C1293      C1294   1.414       .  A
C1294      C1295   1.509       .  S
C1295      H1299   1.111       .  S
C1295      H1300   1.110       .  S
C1295      H1301   1.109       .  S
C1298      H1302   1.109       .  S
C1298      H1303   1.111       .  S
C1298      H1304   1.110       .  S
C1305      C1306   1.402       .  A
C1305      C1310   1.402       .  A
C1305      H1312   1.085       .  S
C1306      C1307   1.416       .  A
C1307      C1308   1.412       .  A
C1307      C1314   1.506       .  S
C1308      C1309   1.404       .  A
C1308      H1313   1.084       .  S
C1309      C1310   1.411       .  A
C1310      C1311   1.504       .  S
C1311      H1315   1.111       .  S
C1311      H1316   1.110       .  S
C1311      H1317   1.110       .  S
C1314      H1318   1.110       .  S
C1314      H1319   1.111       .  S
C1314      H1320   1.111       .  S
C1321      C1322   1.403       .  A
C1321      C1326   1.406       .  A
C1321      H1328   1.085       .  S
C1322      C1323   1.409       .  A
C1323      C1324   1.411       .  A
C1323      C1330   1.505       .  S
C1324      C1325   1.409       .  A
C1324      H1329   1.084       .  S
C1325      C1326   1.416       .  A
C1326      C1327   1.509       .  S
C1327      H1331   1.111       .  S
C1327      H1332   1.110       .  S
C1327      H1333   1.109       .  S
C1330      H1334   1.110       .  S
C1330      H1335   1.110       .  S
C1330      H1336   1.111       .  S
C1337      C1342   1.408       .  A
C1337      C3858   1.405       .  A
C1337      H1344   1.083       .  S
C1338      C1339   1.412       .  A
C1338      C3857   1.404       .  A
C1339      C1340   1.404       .  A
C1339      C1346   1.508       .  S
C1340      C1341   1.407       .  A
C1340      H1345   1.085       .  S
C1341      C3032   1.480       .  S
C1341      C3862   1.411       .  A
C1342      C3861   1.413   1_556  A
C1342      C1343   1.506       .  S
C1343      H1347   1.111       .  S
C1343      H1348   1.109       .  S
C1343      H1349   1.109       .  S
C1346      H1350   1.110       .  S
C1346      H1351   1.109       .  S
C1346      H1352   1.111       .  S
C1353      C1354   1.402       .  A
C1353      C1358   1.397       .  A
C1353      H1360   1.084       .  S
C1354      C1355   1.412       .  A
C1355      C1356   1.406       .  A
C1355      C1362   1.506       .  S
C1356      C1357   1.404       .  A
C1356      H1361   1.084       .  S
C1357      C1358   1.412       .  A
C1358      C1359   1.509       .  S
C1359      H1363   1.111       .  S
C1359      H1364   1.110       .  S
C1359      H1365   1.109       .  S
C1362      H1366   1.110       .  S
C1362      H1367   1.109       .  S
C1362      H1368   1.111       .  S
C1369      C1370   1.398       .  A
C1369      C1374   1.405       .  A
C1369      H1376   1.083       .  S
C1370      C1371   1.405       .  A
C1371      C1372   1.400       .  A
C1371      C1378   1.503       .  S
C1372      C1373   1.409       .  A
C1372      H1377   1.082       .  S
C1373      C1374   1.423       .  A
C1374      C1375   1.508       .  S
C1375      H1379   1.111       .  S
C1375      H1380   1.110       .  S
C1375      H1381   1.110       .  S
C1378      H1382   1.110       .  S
C1378      H1383   1.110       .  S
C1378      H1384   1.111       .  S
C1385      C1386   1.398       .  A
C1385      C1390   1.407       .  A
C1385      H1392   1.084       .  S
C1386      C1387   1.413       .  A
C1387      C1388   1.408       .  A
C1387      C1394   1.507       .  S
C1388      C1389   1.406       .  A
C1388      H1393   1.084       .  S
C1389      C1390   1.424       .  A
C1390      C1391   1.509       .  S
C1391      H1395   1.111       .  S
C1391      H1396   1.109       .  S
C1391      H1397   1.110       .  S
C1394      H1398   1.110       .  S
C1394      H1399   1.110       .  S
C1394      H1400   1.111       .  S
C1401      C1402   1.405       .  A
C1401      C1406   1.405       .  A
C1401      H1408   1.084       .  S
C1402      C1403   1.414       .  A
C1403      C1404   1.406       .  A
C1403      C1410   1.507       .  S
C1404      C1405   1.403       .  A
C1404      H1409   1.084       .  S
C1405      C1406   1.410       .  A
C1406      C1407   1.505       .  S
C1407      H1411   1.111       .  S
C1407      H1412   1.110       .  S
C1407      H1413   1.109       .  S
C1410      H1415   1.110       .  S
C1410      H3934   1.109       .  S
C1410      H3936   1.111       .  S
H1414      C3930   1.111       .  S
H1416      C3930   1.111       .  S
C1417      C1418   1.404       .  A
C1417      C1422   1.413       .  A
C1417      H1424   1.084       .  S
C1418      C1419   1.417       .  A
C1419      C1420   1.399       .  A
C1419      C1426   1.509       .  S
C1420      C1421   1.400       .  A
C1420      H1425   1.083       .  S
C1421      C1422   1.418       .  A
C1422      C1423   1.506       .  S
C1423      H1427   1.111       .  S
C1423      H1428   1.110       .  S
C1423      H1429   1.110       .  S
C1426      H1430   1.107       .  S
C1426      H1431   1.108       .  S
C1426      H1432   1.111       .  S
C1433      C1434   1.410       .  A
C1433      C1438   1.407       .  A
C1433      H1440   1.084       .  S
C1434      C1435   1.422       .  A
C1435      C1436   1.397       .  A
C1435      C1442   1.509       .  S
C1436      C1437   1.397       .  A
C1436      H1441   1.085       .  S
C1437      C1438   1.409       .  A
C1438      C1439   1.506       .  S
C1439      H1443   1.111       .  S
C1439      H1444   1.108       .  S
C1439      H1445   1.110       .  S
C1442      H1446   1.111       .  S
C1442      H1447   1.110       .  S
C1442      H1448   1.110       .  S
C1449      C1450   1.410       .  A
C1449      C1454   1.410       .  A
C1449      H1456   1.084       .  S
C1450      C1451   1.426       .  A
C1451      C1452   1.394       .  A
C1451      C1458   1.514       .  S
C1452      C1453   1.398       .  A
C1452      H1457   1.085       .  S
C1453      C1454   1.412       .  A
C1454      C1455   1.502       .  S
C1455      H1459   1.111       .  S
C1455      H1460   1.106       .  S
C1455      H1461   1.110       .  S
C1458      H1462   1.109       .  S
C1458      H1463   1.110       .  S
C1458      H1464   1.111       .  S
C1465      C1466   1.408       .  A
C1465      C1470   1.401       .  A
C1465      H1472   1.084       .  S
C1466      C1467   1.415       .  A
C1467      C1468   1.409       .  A
C1467      C1474   1.507       .  S
C1468      C1469   1.405       .  A
C1468      H1473   1.084       .  S
C1469      C1470   1.410       .  A
C1470      C1471   1.509       .  S
C1471      H1475   1.111       .  S
C1471      H1476   1.110       .  S
C1471      H1477   1.109       .  S
C1474      H1478   1.110       .  S
C1474      H1479   1.109       .  S
C1474      H1480   1.111       .  S
C1481      C1482   1.399       .  A
C1481      C4006   1.400   1_554  A
C1481      H1488   1.082       .  S
C1482      C1483   1.411   1_554  A
C1483      C4004   1.407       .  A
C1483      C1490   1.506   1_556  S
C1484      C1485   1.403       .  A
C1484      C4003   1.405       .  A
C1484      H1489   1.079       .  S
C1485      C1486   1.415       .  A
C1486      C4001   1.401       .  A
C1486      C1487   1.508       .  S
C1487      H1491   1.111       .  S
C1487      H1492   1.109       .  S
C1487      H1493   1.109       .  S
C1490      H1494   1.110       .  S
C1490      H1495   1.110       .  S
C1490      H1496   1.111   1_554  S
C1497      C1498   1.407       .  A
C1497      C1502   1.403       .  A
C1497      H1504   1.084       .  S
C1498      C1499   1.424       .  A
C1499      C1500   1.404       .  A
C1499      C1506   1.509       .  S
C1500      C1501   1.397       .  A
C1500      H1505   1.085       .  S
C1501      C1502   1.407       .  A
C1502      C1503   1.507       .  S
C1503      H1507   1.111       .  S
C1503      H1508   1.110       .  S
C1503      H1509   1.109       .  S
C1506      H1510   1.110       .  S
C1506      H1511   1.111       .  S
C1506      H1512   1.111       .  S
C1513      C1514   1.406       .  A
C1513      C1518   1.410       .  A
C1513      H1520   1.084       .  S
C1514      C1515   1.414       .  A
C1515      C1516   1.407       .  A
C1515      C1522   1.506       .  S
C1516      C1517   1.407       .  A
C1516      H1521   1.085       .  S
C1517      C1518   1.413       .  A
C1518      C1519   1.502       .  S
C1519      H1523   1.111       .  S
C1519      H1524   1.107       .  S
C1519      H1525   1.109       .  S
C1522      H1526   1.109       .  S
C1522      H1527   1.109       .  S
C1522      H1528   1.111       .  S
C1529      C1530   1.405       .  A
C1529      C1534   1.409       .  A
C1529      H1536   1.084       .  S
C1530      C1531   1.412       .  A
C1531      C1532   1.398       .  A
C1531      C1538   1.505       .  S
C1532      C1533   1.399       .  A
C1532      H4057   1.085   1_554  S
C1533      C2893   1.468   1_554  S
C1533      C1534   1.410       .  A
C1534      C1535   1.506       .  S
C1535      H1539   1.111       .  S
C1535      H1540   1.110       .  S
C1535      H1541   1.110       .  S
H1537      C4052   1.085       .  S
C1538      H1542   1.106       .  S
C1538      H1543   1.110       .  S
C1538      H1544   1.111   1_554  S
C1545      C1546   1.404       .  A
C1545      C1550   1.410       .  A
C1545      H1552   1.084       .  S
C1546      C1547   1.410       .  A
C1547      C1548   1.395       .  A
C1547      C1554   1.510       .  S
C1548      C1549   1.406       .  A
C1548      H1553   1.082       .  S
C1549      C1550   1.417       .  A
C1550      C1551   1.506       .  S
C1551      H1555   1.111       .  S
C1551      H1556   1.110       .  S
C1551      H1557   1.110       .  S
C1554      H1558   1.110       .  S
C1554      H1559   1.104       .  S
C1554      H1560   1.111       .  S
C1561      C1562   1.406       .  A
C1561      C4086   1.401   1_554  A
C1561      H1568   1.084       .  S
C1562      C1563   1.421       .  A
C1563      C1564   1.406       .  A
C1563      C1570   1.505       .  S
C1564      C4085   1.398   1_554  A
C1564      H4089   1.084   1_554  S
C1565      C1566   1.410       .  A
C1565      C4084   1.400       .  A
C1566      C4081   1.397       .  A
C1566      C1567   1.509       .  S
C1567      H1571   1.111       .  S
C1567      H1572   1.111       .  S
C1567      H1573   1.109       .  S
H1569      C4084   1.084       .  S
C1570      H1574   1.110       .  S
C1570      H1575   1.109       .  S
C1570      H1576   1.111       .  S
C1577      C1578   1.408       .  A
C1577      C1582   1.413   1_655  A
C1577      H1584   1.084       .  S
C1578      C1579   1.419       .  A
C1579      C1580   1.400   1_655  A
C1579      C1586   1.510       .  S
C1580      C1581   1.406       .  A
C1580      H1585   1.084       .  S
C1581      C1582   1.418       .  A
C1582      C1583   1.506       .  S
C1583      H1587   1.111       .  S
C1583      H1588   1.110       .  S
C1583      H1589   1.111       .  S
C1586      H1590   1.108       .  S
C1586      H1591   1.110       .  S
C1586      H1592   1.111       .  S
C1593      C1594   1.411       .  A
C1593      C1598   1.418       .  A
C1593      H1600   1.084       .  S
C1594      C1595   1.424       .  A
C1595      C1596   1.401       .  A
C1595      C1602   1.513       .  S
C1596      C1597   1.403       .  A
C1596      H1601   1.084       .  S
C1597      C1598   1.416       .  A
C1598      C1599   1.505       .  S
C1599      H1603   1.111       .  S
C1599      H1604   1.111       .  S
C1599      H1605   1.110       .  S
C1602      H1606   1.109       .  S
C1602      H1607   1.106       .  S
C1602      H1608   1.111       .  S
C1609      C1610   1.401   1_455  A
C1609      C1614   1.403       .  A
C1609      H1616   1.085       .  S
C1610      C1611   1.410       .  A
C1611      C1612   1.405       .  A
C1611      C1618   1.505       .  S
C1612      C1613   1.405   1_655  A
C1612      H1617   1.084       .  S
C1613      C1614   1.414       .  A
C1614      C1615   1.506       .  S
C1615      H1619   1.111       .  S
C1615      H1620   1.106       .  S
C1615      H1621   1.110       .  S
C1618      H1622   1.109       .  S
C1618      H1623   1.110       .  S
C1618      H1624   1.111       .  S
C1625      C1626   1.407       .  A
C1625      C1630   1.403       .  A
C1625      H1632   1.083       .  S
C1626      C1627   1.426       .  A
C1627      C1628   1.412       .  A
C1627      C1634   1.507       .  S
C1628      C1629   1.400       .  A
C1628      H1633   1.084       .  S
C1629      C1630   1.415       .  A
C1630      C1631   1.510       .  S
C1631      H1635   1.111       .  S
C1631      H1636   1.110       .  S
C1631      H1637   1.109       .  S
C1634      H1638   1.110   1_655  S
C1634      H1639   1.110       .  S
C1634      H1640   1.111       .  S
C1641      C1642   1.406       .  A
C1641      C1646   1.414       .  A
C1641      H1648   1.084       .  S
C1642      C1643   1.417       .  A
C1643      C1644   1.397       .  A
C1643      C1650   1.510       .  S
C1644      C1645   1.404       .  A
C1644      H1649   1.084       .  S
C1645      C1646   1.419       .  A
C1646      C1647   1.506       .  S
C1647      H1651   1.111       .  S
C1647      H1652   1.110       .  S
C1647      H1653   1.110       .  S
C1650      H1654   1.109       .  S
C1650      H1655   1.108       .  S
C1650      H1656   1.111       .  S
C1657      C1658   1.404       .  A
C1657      C1662   1.406       .  A
C1657      H1664   1.083       .  S
C1658      C1659   1.413       .  A
C1659      C1660   1.407       .  A
C1659      C1666   1.508       .  S
C1660      C1661   1.404       .  A
C1660      H1665   1.084       .  S
C1661      C1662   1.410       .  A
C1662      C1663   1.504       .  S
C1663      H1667   1.111       .  S
C1663      H1668   1.109       .  S
C1663      H1669   1.110       .  S
C1666      H1670   1.110       .  S
C1666      H1671   1.110       .  S
C1666      H1672   1.111       .  S
C1673      C1674   1.402       .  A
C1673      C1678   1.404       .  A
C1673      H1680   1.083       .  S
C1674      C1675   1.412       .  A
C1675      C1676   1.403       .  A
C1675      C1682   1.506       .  S
C1676      C1677   1.401       .  A
C1676      H1681   1.084       .  S
C1677      C1678   1.411       .  A
C1678      C1679   1.506       .  S
C1679      H1683   1.111       .  S
C1679      H1684   1.110       .  S
C1679      H1685   1.109       .  S
C1682      H1686   1.110       .  S
C1682      H1687   1.107       .  S
C1682      H1688   1.111       .  S
C1689      C1690   1.405       .  A
C1689      C1694   1.408       .  A
C1689      H1696   1.084       .  S
C1690      C1691   1.410       .  A
C1691      C1692   1.405       .  A
C1691      C1698   1.504       .  S
C1692      C1693   1.402       .  A
C1692      H1697   1.081       .  S
C1693      C1694   1.411       .  A
C1694      C1695   1.506       .  S
C1695      H1699   1.111       .  S
C1695      H1700   1.110       .  S
C1695      H1701   1.110       .  S
C1698      H1702   1.110       .  S
C1698      H1703   1.110       .  S
C1698      H1704   1.111       .  S
C1705      C1706   1.397       .  A
C1705      C1710   1.409       .  A
C1705      H1712   1.084       .  S
C1706      C1707   1.411       .  A
C1707      C1708   1.406       .  A
C1707      C1714   1.508       .  S
C1708      C1709   1.407       .  A
C1708      H1713   1.080       .  S
C1709      C1710   1.426       .  A
C1710      C1711   1.509       .  S
C1711      H1715   1.111       .  S
C1711      H1716   1.110       .  S
C1711      H1717   1.110       .  S
C1714      H1718   1.110       .  S
C1714      H1719   1.110       .  S
C1714      H1720   1.111       .  S
C1721      C1722   1.395       .  A
C1721      C1726   1.397       .  A
C1721      H1728   1.080       .  S
C1722      C1723   1.410       .  A
C1723      C1724   1.404       .  A
C1723      C1730   1.506       .  S
C1724      C1725   1.403       .  A
C1724      H1729   1.084       .  S
C1725      C1726   1.411       .  A
C1726      C1727   1.503       .  S
C1727      H1731   1.111       .  S
C1727      H1732   1.109       .  S
C1727      H1733   1.110       .  S
C1730      H1734   1.110       .  S
C1730      H1735   1.110       .  S
C1730      H1736   1.111       .  S
C1737      C1738   1.406       .  A
C1737      C1742   1.401       .  A
C1737      H1744   1.080       .  S
C1738      C1739   1.421       .  A
C1739      C1740   1.403       .  A
C1739      C1746   1.507       .  S
C1740      C1741   1.398       .  A
C1740      H1745   1.082       .  S
C1741      C1742   1.410       .  A
C1742      C1743   1.506       .  S
C1743      H1747   1.111       .  S
C1743      H1748   1.111       .  S
C1743      H1749   1.109       .  S
C1746      H1750   1.110       .  S
C1746      H1751   1.109       .  S
C1746      H1752   1.111       .  S
C1753      C1754   1.404       .  A
C1753      C1758   1.400       .  A
C1753      H1760   1.085       .  S
C1754      C1755   1.415       .  A
C1755      C1756   1.416       .  A
C1755      C1762   1.504       .  S
C1756      C1757   1.410   1_455  A
C1756      H4281   1.084   1_454  S
C1757      C2911   1.493   1_554  S
C1757      C1758   1.418   1_655  A
C1758      C1759   1.510   1_455  S
C1759      H1763   1.111   1_655  S
C1759      H1765   1.110       .  S
C1759      H4284   1.108       .  S
H1761      C4276   1.084   1_655  S
C1762      H1767   1.110       .  S
C1762      H1768   1.111   1_554  S
C1762      H4286   1.105   1_554  S
H1764      C4279   1.108       .  S
H1766      C4282   1.104       .  S
C1769      C1770   1.407       .  A
C1769      C1774   1.416       .  A
C1769      H1776   1.084       .  S
C1770      C1771   1.415       .  A
C1771      C1772   1.400       .  A
C1771      C1778   1.509       .  S
C1772      C1773   1.407       .  A
C1772      H1777   1.084       .  S
C1773      C1774   1.419       .  A
C1774      C4295   1.506       .  S
C1775      C4294   1.506       .  S
C1775      H1779   1.111       .  S
C1775      H1781   1.110       .  S
C1775      H4300   1.111       .  S
C1778      H1782   1.109       .  S
C1778      H1783   1.108   1_554  S
C1778      H1784   1.111   1_554  S
H1780      C4295   1.111       .  S
C1785      C1786   1.403       .  A
C1785      C1790   1.412       .  A
C1785      H1792   1.084       .  S
C1786      C1787   1.408       .  A
C1787      C1788   1.392       .  A
C1787      C1794   1.507       .  S
C1788      C1789   1.406       .  A
C1788      H1793   1.083       .  S
C1789      C1790   1.420       .  A
C1790      C1791   1.506       .  S
C1791      H1795   1.111       .  S
C1791      H1796   1.110       .  S
C1791      H1797   1.110       .  S
C1794      H1798   1.110       .  S
C1794      H1799   1.109       .  S
C1794      H1800   1.111       .  S
C1801      C1802   1.399       .  A
C1801      C1806   1.396       .  A
C1801      H1808   1.085       .  S
C1802      C1803   1.413       .  A
C1803      C1804   1.405       .  A
C1803      C1810   1.508       .  S
C1804      C1805   1.403       .  A
C1804      H1809   1.084       .  S
C1805      C1806   1.411       .  A
C1806      C1807   1.506       .  S
C1807      H1811   1.111       .  S
C1807      H1812   1.110       .  S
C1807      H1813   1.109       .  S
C1810      H1814   1.108       .  S
C1810      H1815   1.110       .  S
C1810      H1816   1.111       .  S
C1817      C1818   1.407       .  A
C1817      C1822   1.407       .  A
C1817      H1824   1.085       .  S
C1818      C1819   1.414       .  A
C1819      C1820   1.409       .  A
C1819      C1826   1.503       .  S
C1820      C1821   1.405       .  A
C1820      H1825   1.084       .  S
C1821      C1822   1.414       .  A
C1822      C1823   1.509       .  S
C1823      H1827   1.111       .  S
C1823      H1828   1.110       .  S
C1823      H1829   1.109       .  S
C1826      H1830   1.108       .  S
C1826      H1831   1.109       .  S
C1826      H1832   1.111       .  S
C1833      C1834   1.403   1_545  A
C1833      C1838   1.401       .  A
C1833      H1840   1.085       .  S
C1834      C1835   1.411       .  A
C1835      C1836   1.399       .  A
C1835      C1842   1.507       .  S
C1836      C1837   1.403   1_565  A
C1836      H1841   1.084       .  S
C1837      C1838   1.414       .  A
C1838      C1839   1.510       .  S
C1839      H1843   1.111       .  S
C1839      H1844   1.110       .  S
C1839      H1845   1.109       .  S
C1842      H1846   1.109       .  S
C1842      H1847   1.109       .  S
C1842      H1848   1.111       .  S
C1849      C1850   1.407       .  A
C1849      C1854   1.412       .  A
C1849      H1856   1.084       .  S
C1850      C1851   1.416       .  A
C1851      C1852   1.404       .  A
C1851      C1858   1.509       .  S
C1852      C1853   1.401       .  A
C1852      H1857   1.085       .  S
C1853      C1854   1.412       .  A
C1854      C1855   1.505       .  S
C1855      H1859   1.111       .  S
C1855      H1860   1.110       .  S
C1855      H1861   1.111       .  S
C1858      H1862   1.111       .  S
C1858      H1863   1.109       .  S
C1858      H1864   1.111       .  S
C1865      C1866   1.405   1_565  A
C1865      C1870   1.403       .  A
C1865      H1872   1.080   1_565  S
C1866      C1867   1.427   1_545  A
C1867      C1868   1.413       .  A
C1867      C1874   1.508       .  S
C1868      C1869   1.400       .  A
C1868      H1873   1.084       .  S
C1869      C1870   1.413       .  A
C1870      C1871   1.510       .  S
C1871      H1875   1.111       .  S
C1871      H1876   1.109       .  S
C1871      H1877   1.110       .  S
C1874      H1878   1.111       .  S
C1874      H1879   1.110   1_565  S
C1874      H1880   1.111       .  S
C1881      C1882   1.402       .  A
C1881      C1886   1.400       .  A
C1881      H1888   1.083       .  S
C1882      C1883   1.413       .  A
C1883      C1884   1.413       .  A
C1883      C1890   1.505       .  S
C1884      C1885   1.408       .  A
C1884      H1889   1.084       .  S
C1885      C1886   1.414       .  A
C1886      C1887   1.508       .  S
C1887      H1891   1.111       .  S
C1887      H1892   1.108       .  S
C1887      H1893   1.108       .  S
C1890      H1894   1.109       .  S
C1890      H1895   1.110       .  S
C1890      H1896   1.111       .  S
C1897      C1898   1.409       .  A
C1897      C1902   1.406       .  A
C1897      H1904   1.084       .  S
C1898      C1899   1.422       .  A
C1899      C1900   1.392       .  A
C1899      C1906   1.513       .  S
C1900      C1901   1.401       .  A
C1900      H1905   1.084       .  S
C1901      C1902   1.412       .  A
C1902      C1903   1.507       .  S
C1903      H1907   1.111       .  S
C1903      H1908   1.111       .  S
C1903      H1909   1.109       .  S
C1906      H1910   1.108       .  S
C1906      H1911   1.110       .  S
C1906      H1912   1.111       .  S
C1913      C1914   1.407       .  A
C1913      C1918   1.403       .  A
C1913      H1920   1.084       .  S
C1914      C1915   1.418       .  A
C1915      C4436   1.394       .  A
C1915      C1922   1.510       .  S
C1916      C1917   1.402       .  A
C1916      C4435   1.394   1_554  A
C1916      H1921   1.085       .  S
C1917      C4438   1.414       .  A
C1918      C4437   1.409       .  A
C1918      C4439   1.507       .  S
C1919      C4438   1.506       .  S
C1919      H1924   1.111       .  S
C1919      H1925   1.109       .  S
C1919      H4443   1.111       .  S
C1922      H1926   1.109       .  S
C1922      H1927   1.110       .  S
C1922      H4448   1.111       .  S
H1923      C4439   1.111       .  S
H1928      C4442   1.111       .  S
C1929      C1930   1.404       .  A
C1929      C1934   1.400       .  A
C1929      H1936   1.084       .  S
C1930      C2778   1.470       .  S
C1930      C1931   1.413       .  A
C1931      C1932   1.400       .  A
C1931      C1938   1.509       .  S
C1932      C1933   1.402       .  A
C1932      H1937   1.085       .  S
C1933      C1934   1.411       .  A
C1934      C1935   1.509       .  S
C1935      H1939   1.111       .  S
C1935      H1940   1.110       .  S
C1935      H1941   1.109       .  S
C1938      H1942   1.110       .  S
C1938      H1943   1.109       .  S
C1938      H1944   1.111       .  S
C1945      C1946   1.404       .  A
C1945      C1950   1.408       .  A
C1945      H1952   1.084       .  S
C1946      C1947   1.426       .  A
C1947      C1948   1.405       .  A
C1947      C1954   1.510       .  S
C1948      C1949   1.397       .  A
C1948      H1953   1.085       .  S
C1949      C1950   1.413       .  A
C1950      C1951   1.503       .  S
C1951      H1955   1.111       .  S
C1951      H1956   1.110       .  S
C1951      H1957   1.110       .  S
C1954      H1958   1.108       .  S
C1954      H1959   1.110       .  S
C1954      H1960   1.111       .  S
C1961      C1962   1.405       .  A
C1961      C1966   1.414       .  A
C1961      H1968   1.084       .  S
C1962      C1963   1.420       .  A
C1963      C1964   1.398       .  A
C1963      C1970   1.511       .  S
C1964      C1965   1.402       .  A
C1964      H1969   1.083       .  S
C1965      C1966   1.418       .  A
C1966      C1967   1.505       .  S
C1967      H1971   1.111       .  S
C1967      H1972   1.110       .  S
C1967      H1973   1.110       .  S
C1970      H1974   1.108       .  S
C1970      H1975   1.109       .  S
C1970      H1976   1.111       .  S
C1977      C1978   1.410       .  A
C1977      C1982   1.417   1_545  A
C1977      H1984   1.084       .  S
C1978      C1979   1.421       .  A
C1979      C1980   1.401   1_545  A
C1979      C1986   1.511       .  S
C1980      C1981   1.401       .  A
C1980      H1985   1.085       .  S
C1981      C1982   1.415       .  A
C1982      C1983   1.505       .  S
C1983      H1987   1.111       .  S
C1983      H1988   1.110       .  S
C1983      H1989   1.111       .  S
C1986      H1990   1.111       .  S
C1986      H1991   1.109       .  S
C1986      H1992   1.111       .  S
C1993      C1994   1.400       .  A
C1993      C4518   1.409       .  A
C1993      H2000   1.084       .  S
C1994      C4515   1.411       .  A
C1995      C1996   1.393   1_556  A
C1995      C4514   1.410       .  A
C1995      C4522   1.507       .  S
C1996      C1997   1.404       .  A
C1996      H2001   1.084       .  S
C1997      C1998   1.421       .  A
C1998      C4513   1.410       .  A
C1998      C1999   1.506       .  S
C1999      H2003   1.111       .  S
C1999      H2004   1.110       .  S
C1999      H2005   1.110       .  S
C2002      C4515   1.510       .  S
C2002      H2006   1.111       .  S
C2002      H2007   1.109       .  S
C2002      H4528   1.111       .  S
H2008      C4522   1.111       .  S
C2009      C2010   1.404       .  A
C2009      C2014   1.396       .  A
C2009      H2016   1.083       .  S
C2010      C2011   1.415       .  A
C2011      C2012   1.407       .  A
C2011      C2018   1.507       .  S
C2012      C2013   1.405       .  A
C2012      H2017   1.084       .  S
C2013      C2014   1.412       .  A
C2014      C2015   1.509       .  S
C2015      H2019   1.111       .  S
C2015      H2020   1.110       .  S
C2015      H2021   1.110       .  S
C2018      H2022   1.110       .  S
C2018      H2023   1.110       .  S
C2018      H2024   1.111       .  S
C2025      C2026   1.402       .  A
C2025      C2030   1.401       .  A
C2025      H2032   1.085       .  S
C2026      C2027   1.411       .  A
C2027      C2028   1.400       .  A
C2027      C2034   1.509       .  S
C2028      C2029   1.403       .  A
C2028      H2033   1.084       .  S
C2029      C2030   1.414       .  A
C2030      C2031   1.510       .  S
C2031      H2035   1.111       .  S
C2031      H2036   1.110       .  S
C2031      H2037   1.109       .  S
C2034      H2038   1.110       .  S
C2034      H2039   1.109       .  S
C2034      H2040   1.111       .  S
C2041      C2042   1.406       .  A
C2041      C2046   1.412       .  A
C2041      H2048   1.084       .  S
C2042      C2043   1.413       .  A
C2043      C2044   1.406       .  A
C2043      C2050   1.509       .  S
C2044      C2045   1.408       .  A
C2044      H2049   1.084       .  S
C2045      C2046   1.416       .  A
C2046      C2047   1.507       .  S
C2047      H2051   1.111       .  S
C2047      H2052   1.110       .  S
C2047      H2053   1.109       .  S
C2050      H2054   1.110       .  S
C2050      H2055   1.110       .  S
C2050      H2056   1.111       .  S
C2057      C2058   1.400       .  A
C2057      C2062   1.402       .  A
C2057      H2064   1.085       .  S
C2058      C2059   1.417       .  A
C2059      C2060   1.412       .  A
C2059      C2066   1.506       .  S
C2060      C2061   1.403       .  A
C2060      H2065   1.084       .  S
C2061      C2062   1.415       .  A
C2062      C2063   1.505       .  S
C2063      H2067   1.111       .  S
C2063      H2068   1.109       .  S
C2063      H2069   1.109       .  S
C2066      H2070   1.110       .  S
C2066      H2071   1.110       .  S
C2066      H2072   1.111       .  S
C2073      C2074   1.405       .  A
C2073      C2078   1.403       .  A
C2073      H2080   1.084       .  S
C2074      C2075   1.421       .  A
C2075      C2076   1.405       .  A
C2075      C2082   1.508       .  S
C2076      C2077   1.400       .  A
C2076      H2081   1.084       .  S
C2077      C2078   1.415       .  A
C2078      C2079   1.509       .  S
C2079      H2083   1.111       .  S
C2079      H2084   1.109       .  S
C2079      H2085   1.111       .  S
C2082      H2086   1.110       .  S
C2082      H2087   1.109       .  S
C2082      H2088   1.111       .  S
C2089      C2090   1.402       .  A
C2089      C2094   1.396       .  A
C2089      H2096   1.084       .  S
C2090      C2091   1.420       .  A
C2091      C2092   1.410       .  A
C2091      C2098   1.506       .  S
C2092      C2093   1.400       .  A
C2092      H2097   1.084       .  S
C2093      C2094   1.410       .  A
C2094      C2095   1.506       .  S
C2095      H2099   1.111       .  S
C2095      H2100   1.106       .  S
C2095      H2101   1.102       .  S
C2098      H2102   1.110       .  S
C2098      H2103   1.110       .  S
C2098      H2104   1.111       .  S
C2105      C2106   1.406       .  A
C2105      C2110   1.410       .  A
C2105      H2112   1.084       .  S
C2106      C4627   1.414       .  A
C2107      C2108   1.407       .  A
C2107      C4626   1.413   1_554  A
C2107      C2114   1.509       .  S
C2108      C4629   1.409       .  A
C2108      H2113   1.084       .  S
C2109      C2746   1.485       .  S
C2109      C2110   1.414   1_565  A
C2109      C4628   1.406   1_565  A
C2110      C2111   1.506   1_545  S
C2111      H2115   1.111       .  S
C2111      H2116   1.110       .  S
C2111      H2117   1.109       .  S
C2114      H2118   1.110       .  S
C2114      H2119   1.110       .  S
C2114      H2120   1.111       .  S
C2121      C2122   1.407       .  A
C2121      C2126   1.399       .  A
C2121      H2128   1.083       .  S
C2122      C2123   1.422       .  A
C2123      C2124   1.415       .  A
C2123      C2130   1.506       .  S
C2124      C2125   1.406       .  A
C2124      H2129   1.084       .  S
C2125      C2126   1.417       .  A
C2126      C2127   1.511       .  S
C2127      H2131   1.111       .  S
C2127      H2132   1.109       .  S
C2127      H2133   1.109       .  S
C2130      H2134   1.110       .  S
C2130      H2135   1.110       .  S
C2130      H2136   1.111       .  S
C2137      C2142   1.416       .  A
C2137      C4658   1.407       .  A
C2137      H2144   1.084       .  S
C2138      C2139   1.419       .  A
C2138      C4657   1.406       .  A
C2139      C2140   1.397       .  A
C2139      C2146   1.512       .  S
C2140      C2141   1.401       .  A
C2140      H2145   1.082       .  S
C2141      C2625   1.486   1_554  S
C2141      C4662   1.417   1_554  A
C2142      C4661   1.418       .  A
C2142      C2143   1.505       .  S
C2143      H2147   1.111       .  S
C2143      H2148   1.110       .  S
C2143      H2149   1.110       .  S
C2146      H2150   1.107       .  S
C2146      H2151   1.109       .  S
C2146      H2152   1.111       .  S
C2153      C2154   1.406       .  A
C2153      C2158   1.410       .  A
C2153      H2160   1.084       .  S
C2154      C2155   1.414       .  A
C2155      C2156   1.400       .  A
C2155      C2162   1.507       .  S
C2156      C2157   1.404       .  A
C2156      H2161   1.084       .  S
C2157      C2158   1.416       .  A
C2158      C2159   1.507       .  S
C2159      H2163   1.111       .  S
C2159      H2164   1.110       .  S
C2159      H2165   1.110       .  S
C2162      H2166   1.111       .  S
C2162      H2167   1.106       .  S
C2162      H2168   1.111       .  S
C2169      C2170   1.398       .  A
C2169      C2174   1.406       .  A
C2169      H2176   1.084       .  S
C2170      C2171   1.410       .  A
C2171      C2172   1.403       .  A
C2171      C2178   1.507       .  S
C2172      C2173   1.405       .  A
C2172      H2177   1.084       .  S
C2173      C2174   1.419       .  A
C2174      C2175   1.503       .  S
C2175      H2179   1.111       .  S
C2175      H2180   1.110       .  S
C2175      H2181   1.108       .  S
C2178      H2182   1.111       .  S
C2178      H2183   1.108       .  S
C2178      H2184   1.111       .  S
C2185      C2186   1.401       .  A
C2185      C2190   1.409       .  A
C2185      H2192   1.084       .  S
C2186      C2187   1.413       .  A
C2187      C2188   1.406       .  A
C2187      C2194   1.507       .  S
C2188      C2189   1.403       .  A
C2188      H2193   1.083       .  S
C2189      C2190   1.417       .  A
C2190      C2191   1.506       .  S
C2191      H2195   1.111       .  S
C2191      H2196   1.109       .  S
C2191      H2197   1.110       .  S
C2194      H2198   1.110       .  S
C2194      H2199   1.109       .  S
C2194      H2200   1.111       .  S
C2201      C2202   1.406       .  A
C2201      C2206   1.413       .  A
C2201      H2208   1.084       .  S
C2202      C2203   1.421       .  A
C2203      C2204   1.400       .  A
C2203      C2210   1.510       .  S
C2204      C2205   1.399       .  A
C2204      H2209   1.085       .  S
C2205      C2206   1.418       .  A
C2206      C2207   1.506       .  S
C2207      H2211   1.111       .  S
C2207      H2212   1.110       .  S
C2207      H2213   1.111       .  S
C2210      H2214   1.105       .  S
C2210      H2215   1.109       .  S
C2210      H2216   1.111       .  S
C2217      C2218   1.411       .  A
C2217      C4742   1.407       .  A
C2217      H2224   1.084       .  S
C2218      C2219   1.428       .  A
C2219      C4740   1.392       .  A
C2219      C2226   1.513       .  S
C2220      C2221   1.391       .  A
C2220      C4739   1.393   1_554  A
C2220      H2225   1.086       .  S
C2221      C2222   1.403       .  A
C2222      C4737   1.404   1_554  A
C2222      C2223   1.505       .  S
C2223      H2227   1.111   1_554  S
C2223      H2228   1.111       .  S
C2223      H2229   1.110       .  S
C2226      H2230   1.107       .  S
C2226      H2231   1.110       .  S
C2226      H2232   1.111       .  S
C2233      C2234   1.395       .  A
C2233      C2238   1.393       .  A
C2233      H2240   1.086       .  S
C2234      C2235   1.407       .  A
C2235      C2236   1.405       .  A
C2235      C2242   1.505       .  S
C2236      C2237   1.408       .  A
C2236      H2241   1.084       .  S
C2237      C2238   1.421       .  A
C2238      C2239   1.511       .  S
C2239      H2243   1.111       .  S
C2239      H2244   1.109       .  S
C2239      H2245   1.109       .  S
C2242      H2246   1.111       .  S
C2242      H2247   1.110       .  S
C2242      H2248   1.111       .  S
C2249      C2250   1.398       .  A
C2249      C2254   1.409       .  A
C2249      H2256   1.084       .  S
C2250      C2251   1.413       .  A
C2251      C2252   1.406       .  A
C2251      C2258   1.506       .  S
C2252      C2253   1.405       .  A
C2252      H2257   1.084       .  S
C2253      C2254   1.426       .  A
C2254      C2255   1.509       .  S
C2255      H2259   1.111       .  S
C2255      H2260   1.108       .  S
C2255      H2261   1.110       .  S
C2258      H2262   1.109       .  S
C2258      H2263   1.109       .  S
C2258      H2264   1.111       .  S
C2265      C2266   1.407       .  A
C2265      C2270   1.410       .  A
C2265      H2272   1.084       .  S
C2266      C2267   1.416       .  A
C2267      C2268   1.396       .  A
C2267      C2274   1.511       .  S
C2268      C2269   1.400       .  A
C2268      H2273   1.080       .  S
C2269      C2270   1.414       .  A
C2270      C2271   1.507       .  S
C2271      H2275   1.111       .  S
C2271      H2276   1.110       .  S
C2271      H2277   1.110       .  S
C2274      H2278   1.110       .  S
C2274      H2279   1.110       .  S
C2274      H2280   1.111       .  S
C2281      C2282   1.408       .  A
C2281      C4806   1.407       .  A
C2281      H2288   1.084       .  S
C2282      C2283   1.423       .  A
C2283      C4804   1.395   1_554  A
C2283      C2290   1.512       .  S
C2284      C2285   1.396       .  A
C2284      C4803   1.395       .  A
C2284      H2289   1.085       .  S
C2285      C2286   1.409       .  A
C2286      C4801   1.405       .  A
C2286      C2287   1.504       .  S
C2287      H2292   1.108       .  S
C2287      H2293   1.110       .  S
C2287      H4811   1.111       .  S
C2290      H2294   1.108       .  S
C2290      H2295   1.109       .  S
C2290      H2296   1.111       .  S
H2291      C4807   1.111   1_554  S
C2297      C2298   1.403       .  A
C2297      C2302   1.405       .  A
C2297      H2304   1.082       .  S
C2298      C2299   1.412       .  A
C2299      C2300   1.404       .  A
C2299      C2306   1.506       .  S
C2300      C2301   1.402       .  A
C2300      H2305   1.085   1_554  S
C2301      C2651   1.468   1_554  S
C2301      C2302   1.409       .  A
C2302      C2303   1.506       .  S
C2303      H2307   1.109       .  S
C2303      H2309   1.110       .  S
C2303      H4828   1.110       .  S
C2306      H2310   1.105       .  S
C2306      H2311   1.110       .  S
C2306      H2312   1.111   1_554  S
H2308      C4823   1.111       .  S
C2313      C2314   1.412       .  A
C2313      C2318   1.410       .  A
C2313      H2320   1.083       .  S
C2314      C2315   1.424       .  A
C2315      C2316   1.402       .  A
C2315      C2322   1.510       .  S
C2316      C2317   1.399       .  A
C2316      H2321   1.085       .  S
C2317      C2318   1.410       .  A
C2318      C2319   1.506       .  S
C2319      H2323   1.111       .  S
C2319      H2324   1.110       .  S
C2319      H2325   1.111       .  S
C2322      H2326   1.110       .  S
C2322      H2327   1.110       .  S
C2322      H2328   1.111       .  S
C2329      C2330   1.409       .  A
C2329      C2334   1.416       .  A
C2329      H2336   1.084       .  S
C2330      C2331   1.422       .  A
C2331      C2332   1.393       .  A
C2331      C2338   1.514       .  S
C2332      C2333   1.400       .  A
C2332      H2337   1.083       .  S
C2333      C2334   1.418       .  A
C2334      C2335   1.505       .  S
C2335      H2339   1.110       .  S
C2335      H2340   1.111       .  S
C2335      H2341   1.105       .  S
C2338      H2342   1.108       .  S
C2338      H2343   1.105       .  S
C2338      H2344   1.110       .  S
C2345      C2346   1.401       .  A
C2345      C2350   1.412       .  A
C2345      H2352   1.084       .  S
C2346      C2347   1.412       .  A
C2347      C2348   1.402       .  A
C2347      C2354   1.508       .  S
C2348      C2349   1.404       .  A
C2348      H2353   1.084       .  S
C2349      C2350   1.421       .  A
C2350      C2351   1.506       .  S
C2351      H2355   1.111       .  S
C2351      H2356   1.110       .  S
C2351      H2357   1.110       .  S
C2354      H2358   1.110       .  S
C2354      H2359   1.110       .  S
C2354      H2360   1.111       .  S
C2361      C2362   1.395       .  A
C2361      C2366   1.391       .  A
C2361      H2368   1.086       .  S
C2362      C2363   1.408       .  A
C2363      C2364   1.402       .  A
C2363      C2370   1.506       .  S
C2364      C2365   1.407       .  A
C2364      H2369   1.084       .  S
C2365      C2366   1.423       .  A
C2366      C2367   1.513       .  S
C2367      H2371   1.111       .  S
C2367      H2372   1.107       .  S
C2367      H2373   1.110       .  S
C2370      H2374   1.110       .  S
C2370      H2375   1.109       .  S
C2370      H2376   1.111       .  S
C2377      C2378   1.405       .  A
C2377      C2382   1.393       .  A
C2377      H2384   1.084       .  S
C2378      C2379   1.420       .  A
C2379      C2380   1.408       .  A
C2379      C2386   1.506       .  S
C2380      C2381   1.401       .  A
C2380      H2385   1.084       .  S
C2381      C2382   1.408       .  A
C2382      C2383   1.508       .  S
C2383      H2387   1.111       .  S
C2383      H2388   1.110       .  S
C2383      H2389   1.107       .  S
C2386      H2390   1.110       .  S
C2386      H2391   1.109       .  S
C2386      H2392   1.111       .  S
C2393      C2394   1.399       .  A
C2393      C2398   1.399       .  A
C2393      H2400   1.085       .  S
C2394      C2395   1.409       .  A
C2395      C2396   1.400       .  A
C2395      C2402   1.506       .  S
C2396      C2397   1.400       .  A
C2396      H2401   1.085       .  S
C2397      C2398   1.410       .  A
C2398      C2399   1.506       .  S
C2399      H2403   1.111       .  S
C2399      H2404   1.106       .  S
C2399      H2405   1.110       .  S
C2402      H2406   1.108       .  S
C2402      H2407   1.110       .  S
C2402      H2408   1.111       .  S
C2409      C2410   1.400       .  A
C2409      C2414   1.404       .  A
C2409      H2416   1.084       .  S
C2410      C2411   1.418       .  A
C2411      C2412   1.412       .  A
C2411      C2418   1.506       .  S
C2412      C2413   1.403       .  A
C2412      H2417   1.084       .  S
C2413      C2414   1.417       .  A
C2414      C2415   1.508       .  S
C2415      H2419   1.111       .  S
C2415      H2420   1.109       .  S
C2415      H2421   1.108       .  S
C2418      H2422   1.110       .  S
C2418      H2423   1.110       .  S
C2418      H2424   1.111       .  S
C2425      C2426   1.401       .  A
C2425      C2430   1.414       .  A
C2425      H2432   1.084       .  S
C2426      C2427   1.410       .  A
C2427      C2428   1.405       .  A
C2427      C2434   1.508       .  S
C2428      C2429   1.409   1_455  A
C2428      H2433   1.081   1_455  S
C2429      C2430   1.427   1_655  A
C2430      C2431   1.507       .  S
C2431      H2435   1.111       .  S
C2431      H2436   1.111   1_455  S
C2431      H2437   1.110   1_455  S
C2434      H2438   1.109       .  S
C2434      H2439   1.110       .  S
C2434      H2440   1.111       .  S
C2441      C2442   1.404       .  A
C2441      C2446   1.404       .  A
C2441      H2448   1.084       .  S
C2442      C2443   1.412       .  A
C2443      C2444   1.406       .  A
C2443      C2450   1.506       .  S
C2444      C2445   1.403       .  A
C2444      H2449   1.083       .  S
C2445      C2446   1.410       .  A
C2446      C2447   1.506       .  S
C2447      H2451   1.111       .  S
C2447      H2452   1.110       .  S
C2447      H2453   1.109       .  S
C2450      H2454   1.110       .  S
C2450      H2455   1.108       .  S
C2450      H2456   1.111       .  S
C2457      C2458   1.407       .  A
C2457      C2462   1.409       .  A
C2457      H2464   1.084       .  S
C2458      C2459   1.413       .  A
C2459      C2460   1.400       .  A
C2459      C2466   1.509       .  S
C2460      C2461   1.402       .  A
C2460      H2465   1.085       .  S
C2461      C2462   1.411       .  A
C2462      C2463   1.506       .  S
C2463      H2467   1.111       .  S
C2463      H2468   1.111       .  S
C2463      H2469   1.110       .  S
C2466      H2470   1.108       .  S
C2466      H2471   1.110       .  S
C2466      H2472   1.111       .  S
C2473      C2474   1.399       .  A
C2473      C2478   1.399       .  A
C2473      H2480   1.085       .  S
C2474      C2475   1.412       .  A
C2475      C2476   1.409       .  A
C2475      C2482   1.505       .  S
C2476      C2477   1.404       .  A
C2476      H2481   1.082       .  S
C2477      C2478   1.414       .  A
C2478      C2479   1.508       .  S
C2479      H2483   1.111       .  S
C2479      H2484   1.110       .  S
C2479      H2485   1.107       .  S
C2482      H2486   1.110       .  S
C2482      H2487   1.111       .  S
C2482      H2488   1.111       .  S
C2489      C2490   1.391       .  A
C2489      C2494   1.391       .  A
C2489      H2496   1.086       .  S
C2490      C2491   1.408       .  A
C2491      C2492   1.407       .  A
C2491      C2498   1.506       .  S
C2492      C2493   1.410       .  A
C2492      H2497   1.084       .  S
C2493      C2494   1.428       .  A
C2494      C2495   1.514       .  S
C2495      H2499   1.111       .  S
C2495      H2500   1.107       .  S
C2495      H2501   1.110       .  S
C2498      H2502   1.110       .  S
C2498      H2503   1.110       .  S
C2498      H2504   1.111       .  S
C2505      C2506   1.407       .  A
C2505      C2510   1.392       .  A
C2505      H2512   1.084       .  S
C2506      C2507   1.421       .  A
C2507      C2508   1.404       .  A
C2507      C2514   1.507       .  S
C2508      C2509   1.399       .  A
C2508      H2513   1.084       .  S
C2509      C2510   1.410       .  A
C2510      C2511   1.510       .  S
C2511      H2515   1.111       .  S
C2511      H2516   1.111       .  S
C2511      H2517   1.109       .  S
C2514      H2518   1.110       .  S
C2514      H2519   1.108       .  S
C2514      H2520   1.111       .  S
O2521      C2536   1.258       .  A
O2521     Al2529   1.861       .  S
C2522      O2532   1.262       .  A
C2522      O2523   1.266       .  A
C2522      C5010   1.465       .  S
O2523     Al2525   1.927       .  S
O2524      C2526   1.257       .  A
O2524     Al2525   1.898       .  S
Al2525     O2533   1.898       .  S
Al2525     O2535   1.922       .  S
Al2525     O2534   1.785       .  S
C2526      O2539   1.262       .  A
C2526      C4946   1.481       .  S
O2527      C2537   1.261       .  A
O2527     Al2529   1.909       .  S
O2528      C2541   1.268       .  A
O2528     Al2538   1.921       .  S
Al2529     O2542   1.920       .  S
Al2529     O2539   1.925       .  S
Al2529     O2534   1.781       .  S
O2530      C2537   1.262       .  A
O2530     Al2538   1.913       .  S
O2531      C2540   1.260       .  A
O2531     Al2538   1.928       .  S
O2532     Al2538   1.879       .  S
O2533      C2540   1.256       .  A
O2534     Al2538   1.783       .  S
O2535      C2536   1.263       .  A
C2536      C5026   1.486       .  S
C2537      C4978   1.480       .  S
C2540      C4962   1.481       .  S
C2541      O2542   1.267       .  A
C2541      C4994   1.476       .  S
O2543      C2558   1.255       .  A
O2543     Al2551   1.855       .  S
C2544      O2554   1.264       .  A
C2544      O2545   1.268       .  A
C2544      C4882   1.464       .  S
O2545     Al2547   1.927       .  S
O2546      C2548   1.257       .  A
O2546     Al2547   1.890       .  S
Al2547     O2555   1.894       .  S
Al2547     O2557   1.907       .  S
Al2547     O2556   1.790       .  S
C2548      O2561   1.261       .  A
C2548      C4866   1.478       .  S
O2549      C2559   1.258       .  A
O2549     Al2551   1.907       .  S
O2550      C2563   1.267       .  A
O2550     Al2560   1.908       .  S
Al2551     O2564   1.919       .  S
Al2551     O2561   1.922       .  S
Al2551     O2556   1.785       .  S
O2552      C2559   1.259       .  A
O2552     Al2560   1.917       .  S
O2553      C2562   1.258       .  A
O2553     Al2560   1.930       .  S
O2554     Al2560   1.875       .  S
O2555      C2562   1.253       .  A
O2556     Al2560   1.791       .  S
O2557      C2558   1.259       .  A
C2558      C4898   1.480       .  S
C2559      C4930   1.479       .  S
C2562      C4965   1.479       .  S
C2563      O2564   1.268       .  A
C2563      C4914   1.470       .  S
O2565      C2580   1.252       .  A
O2565     Al2573   1.849       .  S
C2566      O2576   1.263       .  A
C2566      O2567   1.270       .  A
C2566      C4786   1.477       .  S
O2567     Al2569   1.937       .  S
O2568      C2570   1.255       .  A
O2568     Al2569   1.893       .  S
Al2569     O2577   1.895       .  S
Al2569     O2579   1.930       .  S
Al2569     O2578   1.786       .  S
C2570      O2583   1.262       .  A
C2570      C4770   1.483       .  S
O2571      C2581   1.260       .  A
O2571     Al2573   1.914       .  S
O2572      C2585   1.267       .  A
O2572     Al2582   1.913       .  S
Al2573     O2586   1.933       .  S
Al2573     O2583   1.930       .  S
Al2573     O2578   1.785       .  S
O2574      C2581   1.264       .  A
O2574     Al2582   1.924       .  S
O2575      C2584   1.260       .  A
O2575     Al2582   1.928       .  S
O2576     Al2582   1.873       .  S
O2577      C2584   1.254       .  A
O2578     Al2582   1.789       .  S
O2579      C2580   1.266       .  A
C2580      C4802   1.478       .  S
C2581      C4853   1.484       .  S
C2584      C4834   1.488       .  S
C2585      O2586   1.270       .  A
C2585      C4818   1.477       .  S
O2587      C2602   1.254       .  A
O2587     Al2595   1.858       .  S
C2588      O2598   1.263       .  A
C2588      O2589   1.269       .  A
C2588      C4741   1.457       .  S
O2589     Al2591   1.929       .  S
O2590      C2592   1.255       .  A
O2590     Al2591   1.891       .  S
Al2591     O2599   1.898       .  S
Al2591     O2601   1.916       .  S
Al2591     O2600   1.789       .  S
C2592      O2605   1.260       .  A
C2592      C4706   1.478       .  S
O2593      C2603   1.260       .  A
O2593     Al2595   1.913       .  S
O2594      C2607   1.268       .  A
O2594     Al2604   1.911       .  S
Al2595     O2608   1.922       .  S
Al2595     O2605   1.920       .  S
Al2595     O2600   1.787       .  S
O2596      C2603   1.262       .  A
O2596     Al2604   1.915       .  S
O2597      C2606   1.256       .  A
O2597     Al2604   1.921       .  S
O2598     Al2604   1.873       .  S
O2599      C2606   1.253       .  A
O2600     Al2604   1.788       .  S
O2601      C2602   1.263       .  A
C2602      C4757   1.481       .  S
C2603      C4725   1.491       .  S
C2606      C4837   1.477       .  S
C2607      O2608   1.268       .  A
C2607      C4917   1.470       .  S
O2609      C2624   1.257       .  A
O2609     Al2617   1.873       .  S
C2610      O2620   1.261       .  A
C2610      O2611   1.264       .  A
C2610      C4674   1.483       .  S
O2612      C2614   1.255       .  A
O2612     Al2613   1.889       .  S
Al2613     O2621   1.883       .  S
Al2613     O2623   1.922       .  S
Al2613     O2622   1.786       .  S
C2614      O2627   1.262       .  A
C2614      C4626   1.483       .  S
O2615      C2625   1.265       .  A
O2615     Al2617   1.916       .  S
O2616      C2629   1.266       .  A
O2616     Al2626   1.921       .  S
Al2617     O2630   1.909       .  S
Al2617     O2627   1.930       .  S
Al2617     O2622   1.788       .  S
O2618      C2625   1.264       .  A
O2618     Al2626   1.906       .  S
O2619      C2628   1.260       .  A
O2619     Al2626   1.930       .  S
O2621      C2628   1.256       .  A
O2622     Al2626   1.787       .  S
O2623      C2624   1.263       .  A
C2624      C4690   1.463       .  S
C2628      C4642   1.499       .  S
C2629      O2630   1.263       .  A
C2629      C4997   1.476       .  S
O2631      C2646   1.257       .  A
C2632      O2642   1.262       .  A
C2632      O2633   1.265       .  A
C2632      C4594   1.484       .  S
O2633     Al2635   1.923       .  S
O2634      C2636   1.254       .  A
O2634     Al2635   1.876       .  S
Al2635     O2643   1.874       .  S
Al2635     O2645   1.923       .  S
Al2635     O2644   1.783       .  S
C2636      O2649   1.265       .  A
C2636      C4562   1.482       .  S
O2637      C2647   1.265       .  A
O2637     Al2639   1.914       .  S
O2638      C2651   1.264       .  A
O2638     Al2648   1.907       .  S
Al2639     O2652   1.914       .  S
Al2639     O2649   1.943       .  S
Al2639     O2644   1.788       .  S
O2640      C2647   1.264       .  A
O2640     Al2648   1.921       .  S
O2641      C2650   1.264       .  A
O2641     Al2648   1.945       .  S
O2642     Al2648   1.888       .  S
O2643      C2650   1.251       .  A
O2644     Al2648   1.790       .  S
C2646      C4610   1.463       .  S
C2647      C4578   1.484       .  S
C2650      C4645   1.490       .  S
C2651      O2652   1.265       .  A
O2653      C2668   1.259       .  A
O2653     Al2661   1.874       .  S
C2654      O2664   1.263       .  A
C2654      O2655   1.267       .  A
C2654      C4514   1.470       .  S
O2655     Al2657   1.929       .  S
O2656      C2658   1.260       .  A
O2656     Al2657   1.915       .  S
Al2657     O2665   1.925       .  S
Al2657     O2667   1.913       .  S
Al2657     O2666   1.792       .  S
C2658      O2671   1.258       .  A
C2658      C4565   1.490       .  S
O2659      C2669   1.264       .  A
O2659     Al2661   1.924       .  S
O2660      C2673   1.267       .  A
O2660     Al2670   1.917       .  S
Al2661     O2674   1.905       .  S
Al2661     O2671   1.903       .  S
Al2661     O2666   1.780       .  S
O2662      C2669   1.262       .  A
O2662     Al2670   1.917       .  S
O2663      C2672   1.257       .  A
O2663     Al2670   1.907       .  S
O2664     Al2670   1.879       .  S
O2665      C2672   1.259       .  A
O2666     Al2670   1.782       .  S
O2667      C2668   1.264       .  A
C2668      C4546   1.465       .  S
C2669      C4482   1.488       .  S
C2672      C4498   1.491       .  S
C2673      O2674   1.265       .  A
C2673      C4530   1.486       .  S
O2675      C2690   1.263       .  A
O2675     Al2683   1.882       .  S
C2676      O2686   1.261       .  A
C2676      O2677   1.267       .  A
C2676      C4421   1.488       .  S
O2677     Al2679   1.924       .  S
O2678      C2680   1.261       .  A
O2678     Al2679   1.920       .  S
Al2679     O2687   1.924       .  S
Al2679     O2689   1.920       .  S
Al2679     O2688   1.794       .  S
C2680      O2693   1.252       .  A
C2680      C4466   1.491       .  S
O2681      C2691   1.265       .  A
O2681     Al2683   1.925       .  S
O2682      C2695   1.259       .  A
O2682     Al2692   1.899       .  S
Al2683     O2696   1.904       .  S
Al2683     O2693   1.887       .  S
Al2683     O2688   1.786       .  S
O2684      C2691   1.264       .  A
O2684     Al2692   1.917       .  S
O2685      C2694   1.253       .  A
O2685     Al2692   1.889       .  S
O2686     Al2692   1.862       .  S
O2687      C2694   1.258       .  A
O2688     Al2692   1.784       .  S
O2689      C2690   1.267       .  A
C2690      C4453   1.472       .  S
C2691      C4402   1.488       .  S
C2694      C4501   1.484       .  S
C2695      O2696   1.259       .  A
C2695      C4434   1.473       .  S
O2697      C2712   1.259       .  A
O2697     Al2705   1.881       .  S
C2698      O2708   1.266       .  A
C2698      O2699   1.270       .  A
C2698      C4693   1.477       .  S
O2699     Al2701   1.931       .  S
O2700      C2702   1.260       .  A
O2700     Al2701   1.901       .  S
Al2701     O2709   1.921       .  S
Al2701     O2711   1.919       .  S
Al2701     O2710   1.789       .  S
C2702      O2715   1.255       .  A
C2702      C4386   1.491       .  S
O2703      C2713   1.261       .  A
O2703     Al2705   1.919       .  S
O2704      C2717   1.266       .  A
O2704     Al2714   1.910       .  S
Al2705     O2718   1.910       .  S
Al2705     O2715   1.892       .  S
Al2705     O2710   1.783       .  S
O2706      C2713   1.259       .  A
O2706     Al2714   1.906       .  S
O2707      C2716   1.252       .  A
O2707     Al2714   1.888       .  S
O2708     Al2714   1.888       .  S
O2709      C2716   1.258       .  A
O2710     Al2714   1.785       .  S
O2711      C2712   1.265       .  A
C2712      C4357   1.473       .  S
C2713      C4981   1.478       .  S
C2716      C4370   1.486       .  S
C2717      O2718   1.265       .  A
C2717      C4677   1.478       .  S
O2719      C2734   1.261       .  A
O2719     Al2727   1.884       .  S
C2720      O2730   1.261       .  A
C2720      O2721   1.265       .  A
C2720      C4613   1.466       .  S
O2721     Al2723   1.918       .  S
O2722      C2724   1.252       .  A
O2722     Al2723   1.875       .  S
Al2723     O2731   1.901       .  S
Al2723     O2733   1.902       .  S
Al2723     O2732   1.788       .  S
C2724      O2737   1.260       .  A
C2724      C4338   1.500       .  S
O2725      C2735   1.265       .  A
O2725     Al2727   1.925       .  S
O2726      C2739   1.263       .  A
O2726     Al2736   1.901       .  S
Al2727     O2740   1.917       .  S
Al2727     O2737   1.931       .  S
Al2727     O2732   1.794       .  S
O2728      C2735   1.260       .  A
O2728     Al2736   1.906       .  S
O2729      C2738   1.254       .  A
O2729     Al2736   1.898       .  S
O2730     Al2736   1.882       .  S
O2731      C2738   1.253       .  A
O2732     Al2736   1.786       .  S
O2733      C2734   1.263       .  A
C2734      C4549   1.466       .  S
C2735      C4850   1.482       .  S
C2738      C4373   1.477       .  S
C2739      O2740   1.264       .  A
C2739      C4597   1.475       .  S
O2741      C2756   1.259       .  A
O2741     Al2749   1.881       .  S
C2742      O2752   1.262       .  A
C2742      O2743   1.268       .  A
C2742      C4306   1.460       .  S
Al2745     O2753   1.930       .  S
Al2745     O2755   1.925       .  S
Al2745     O2754   1.787       .  S
C2746      O2759   1.260       .  A
O2747      C2757   1.264       .  A
O2747     Al2749   1.931       .  S
O2748      C2761   1.263       .  A
O2748     Al2758   1.895       .  S
Al2749     O2762   1.915       .  S
Al2749     O2759   1.905       .  S
Al2749     O2754   1.785       .  S
O2750      C2757   1.263       .  A
O2750     Al2758   1.912       .  S
O2751      C2760   1.257       .  A
O2751     Al2758   1.900       .  S
O2753      C2760   1.260       .  A
O2754     Al2758   1.778       .  S
O2755      C2756   1.266       .  A
C2756      C4354   1.475       .  S
C2757      C4274   1.492       .  S
C2760      C4293   1.498       .  S
C2761      O2762   1.266       .  A
C2761      C4322   1.472       .  S
O2763      C2778   1.262       .  A
O2763     Al2771   1.883       .  S
C2764      O2774   1.261       .  A
C2764      O2765   1.266       .  A
C2764      C4245   1.468       .  S
O2765     Al2767   1.913       .  S
O2766      C2768   1.261       .  A
O2766     Al2767   1.923       .  S
Al2767     O2775   1.927       .  S
Al2767     O2777   1.912       .  S
Al2767     O2776   1.796       .  S
C2768      O2781   1.255       .  A
C2768      C4229   1.499       .  S
O2769      C2779   1.264       .  A
O2769     Al2771   1.918       .  S
O2770     Al2780   1.902       .  S
Al2771     O2781   1.901       .  S
Al2771     O2776   1.790       .  S
O2772      C2779   1.263       .  A
O2772     Al2780   1.924       .  S
O2773      C2782   1.254       .  A
O2773     Al2780   1.897       .  S
O2774     Al2780   1.873       .  S
O2775      C2782   1.259       .  A
O2776     Al2780   1.788       .  S
O2777      C2778   1.266       .  A
C2779      C4213   1.480       .  S
C2782      C4290   1.494       .  S
C2783      O2784   1.262       .  A
C2783      C4261   1.470       .  S
O2785      C2800   1.257       .  A
O2785     Al2793   1.881       .  S
C2786      O2796   1.263       .  A
C2786      O2787   1.260       .  A
C2786      C4258   1.486       .  S
O2787     Al2789   1.906       .  S
O2788      C2790   1.257       .  A
O2788     Al2789   1.889       .  S
Al2789     O2797   1.880       .  S
Al2789     O2799   1.917       .  S
Al2789     O2798   1.781       .  S
C2790      O2803   1.265       .  A
C2790      C4469   1.485       .  S
O2791      C2801   1.265       .  A
O2791     Al2793   1.911       .  S
O2792      C2805   1.263       .  A
O2792     Al2802   1.916       .  S
Al2793     O2806   1.908       .  S
Al2793     O2803   1.944       .  S
Al2793     O2798   1.785       .  S
O2794      C2801   1.264       .  A
O2794     Al2802   1.913       .  S
O2795      C2804   1.263       .  A
O2795     Al2802   1.931       .  S
O2796     Al2802   1.897       .  S
O2797      C2804   1.255       .  A
O2798     Al2802   1.787       .  S
O2799      C2800   1.260       .  A
C2800      C4242   1.462       .  S
C2801      C4181   1.478       .  S
C2804      C4162   1.489       .  S
C2805      O2806   1.262       .  A
C2805      C4197   1.472       .  S
O2807      C2822   1.265       .  A
O2807     Al2815   1.894       .  S
C2808      O2818   1.271       .  A
C2808      O2809   1.266       .  A
C2808      C4325   1.464       .  S
O2809     Al2811   1.881       .  S
O2810      C2812   1.254       .  A
O2810     Al2811   1.893       .  S
Al2811     O2819   1.872       .  S
Al2811     O2821   1.909       .  S
Al2811     O2820   1.790       .  S
C2812      O2825   1.259       .  A
C2812      C4389   1.470       .  S
O2813      C2823   1.252       .  A
O2813     Al2815   1.886       .  S
O2814      C2827   1.263       .  A
O2814     Al2824   1.910       .  S
Al2815     O2828   1.878       .  S
Al2815     O2825   1.915       .  S
Al2815     O2820   1.783       .  S
O2816      C2823   1.259       .  A
O2816     Al2824   1.897       .  S
O2817      C2826   1.255       .  A
O2817     Al2824   1.919       .  S
O2818     Al2824   1.925       .  S
O2819      C2826   1.250       .  A
O2820     Al2824   1.790       .  S
O2821      C2822   1.267       .  A
C2822      C4309   1.484       .  S
C2823      C4146   1.496   1_455  S
C2826      C4165   1.494       .  S
C2827      O2828   1.259       .  A
C2827      C4133   1.471       .  S
O2829      C2844   1.260       .  A
O2829     Al2837   1.874       .  S
C2830      O2840   1.265       .  A
C2830      O2831   1.267       .  A
C2830      C4066   1.474       .  S
O2831     Al2833   1.922       .  S
O2832      C2834   1.253       .  A
O2832     Al2833   1.886       .  S
Al2833     O2841   1.893       .  S
Al2833     O2843   1.915       .  S
Al2833     O2842   1.794       .  S
C2834      O2847   1.259       .  A
C2834      C4034   1.482       .  S
O2835      C2845   1.266       .  A
O2835     Al2837   1.935       .  S
O2836      C2849   1.268       .  A
O2836     Al2846   1.918       .  S
Al2837     O2850   1.912       .  S
Al2837     O2847   1.920       .  S
Al2837     O2842   1.795       .  S
O2838      C2845   1.259       .  A
O2838     Al2846   1.910       .  S
O2839      C2848   1.257       .  A
O2839     Al2846   1.928       .  S
O2840     Al2846   1.893       .  S
O2841      C2848   1.252       .  A
O2842     Al2846   1.792       .  S
O2843      C2844   1.263       .  A
C2844      C4082   1.489       .  S
C2845      C4114   1.504       .  S
C2848      C4098   1.489       .  S
C2849      O2850   1.265       .  A
C2849      C4050   1.473       .  S
O2851      C2866   1.256       .  A
O2851     Al2859   1.878       .  S
C2852      O2862   1.260       .  A
C2852      O2853   1.266       .  A
C2852      C4002   1.470       .  S
O2853     Al2855   1.927       .  S
O2854      C2856   1.255       .  A
O2854     Al2855   1.883       .  S
Al2855     O2863   1.882       .  S
Al2855     O2865   1.927       .  S
Al2855     O2864   1.784       .  S
C2856      O2869   1.263       .  A
C2856      C3989   1.481       .  S
O2857      C2867   1.263       .  A
O2857     Al2859   1.914       .  S
O2858      C2871   1.264       .  A
O2858     Al2868   1.909       .  S
Al2859     O2872   1.910       .  S
Al2859     O2869   1.939       .  S
Al2859     O2864   1.788       .  S
O2860      C2867   1.264       .  A
O2860     Al2868   1.925       .  S
O2861      C2870   1.265       .  A
O2861     Al2868   1.952       .  S
O2862     Al2868   1.887       .  S
O2863      C2870   1.256       .  A
O2864     Al2868   1.788       .  S
O2865      C2866   1.264       .  A
C2866      C4021   1.468       .  S
C2867      C4210   1.481       .  S
C2870      C4101   1.507       .  S
C2871      O2872   1.264       .  A
C2871      C4194   1.468       .  S
O2873      C2888   1.254       .  A
C2874      O2884   1.259       .  A
C2874      O2875   1.271       .  A
C2874      C3954   1.489       .  S
O2875     Al2877   1.941       .  S
O2876      C2878   1.253       .  A
O2876     Al2877   1.884       .  S
Al2877     O2885   1.882       .  S
Al2877     O2887   1.949       .  S
Al2877     O2886   1.783       .  S
C2878      O2891   1.259       .  A
C2878      C3906   1.476       .  S
O2879      C2889   1.264       .  A
O2879     Al2881   1.905       .  S
O2880      C2893   1.263       .  A
O2880     Al2890   1.913       .  S
Al2881     O2894   1.909       .  S
Al2881     O2891   1.928       .  S
Al2881     O2886   1.785       .  S
O2882      C2889   1.269       .  A
O2882     Al2890   1.935       .  S
O2883      C2892   1.262       .  A
O2883     Al2890   1.933       .  S
O2884     Al2890   1.871       .  S
O2885      C2892   1.253       .  A
O2886     Al2890   1.785       .  S
C2888      C3970   1.485       .  S
C2889      C3941   1.489       .  S
C2892      C3922   1.491       .  S
C2893      O2894   1.263       .  A
O2895      C2910   1.259       .  A
O2895     Al2903   1.882       .  S
C2896      O2906   1.261       .  A
C2896      O2897   1.267       .  A
C2896      C3874   1.472       .  S
O2898      C2900   1.254       .  A
O2898     Al2899   1.881       .  S
Al2899     O2907   1.892       .  S
Al2899     O2909   1.909       .  S
Al2899     O2908   1.784       .  S
C2900      O2913   1.260       .  A
C2900      C3858   1.475       .  S
O2901      C2911   1.264       .  A
O2901     Al2903   1.925       .  S
O2902      C2915   1.264       .  A
O2902     Al2912   1.902       .  S
Al2903     O2916   1.911       .  S
Al2903     O2913   1.921       .  S
Al2903     O2908   1.791       .  S
O2904      C2911   1.261       .  A
O2904     Al2912   1.912       .  S
O2905      C2914   1.258       .  A
O2905     Al2912   1.925       .  S
O2907      C2914   1.253       .  A
O2908     Al2912   1.784       .  S
O2909      C2910   1.262       .  A
C2910      C3890   1.467       .  S
C2914      C3925   1.476       .  S
C2915      O2916   1.265       .  A
C2915      C4130   1.461       .  S
O2917      C2932   1.267       .  A
O2917     Al2925   1.904       .  S
C2918      O2928   1.271       .  A
C2918      O2919   1.264       .  A
C2918      C3893   1.475       .  S
O2919     Al2921   1.879       .  S
O2920      C2922   1.257       .  A
O2920     Al2921   1.909       .  S
Al2921     O2929   1.935       .  S
Al2921     O2931   1.902       .  S
Al2921     O2930   1.795       .  S
C2922      O2935   1.259       .  A
C2922      C3842   1.476       .  S
O2923      C2933   1.260       .  A
O2923     Al2925   1.915       .  S
O2924      C2937   1.261       .  A
O2924     Al2934   1.909       .  S
Al2925     O2938   1.880       .  S
Al2925     O2935   1.915       .  S
Al2925     O2930   1.786       .  S
O2926      C2933   1.254       .  A
O2926     Al2934   1.877       .  S
O2927      C2936   1.251       .  A
O2927     Al2934   1.879       .  S
O2928     Al2934   1.936       .  S
O2929      C2936   1.258       .  A
O2930     Al2934   1.784       .  S
O2931      C2932   1.267       .  A
C2932      C3810   1.458       .  S
C2933      C4149   1.472       .  S
C2936      C3826   1.486       .  S
C2937      O2938   1.256       .  A
C2937      C3877   1.476       .  S
O2939      C2954   1.263       .  A
O2939     Al2947   1.900       .  S
C2940      O2950   1.263       .  A
C2940      O2941   1.268       .  A
C2940      C3973   1.472       .  S
O2941     Al2943   1.936       .  S
O2942      C2944   1.263       .  A
O2942     Al2943   1.913       .  S
Al2943     O2951   1.921       .  S
Al2943     O2953   1.906       .  S
Al2943     O2952   1.787       .  S
C2944      O2957   1.260       .  A
C2944      C4773   1.496       .  S
O2945      C2955   1.267       .  A
O2945     Al2947   1.943       .  S
O2946      C2959   1.265       .  A
O2946     Al2956   1.911       .  S
Al2947     O2960   1.910       .  S
Al2947     O2957   1.910       .  S
Al2947     O2952   1.781       .  S
O2948      C2955   1.262       .  A
O2948     Al2956   1.906       .  S
O2949      C2958   1.256       .  A
O2949     Al2956   1.903       .  S
O2950     Al2956   1.876       .  S
O2951      C2958   1.258       .  A
O2952     Al2956   1.781       .  S
O2953      C2954   1.262       .  A
C2954      C3797   1.474       .  S
C2955      C4117   1.500       .  S
C2958      C3829   1.483       .  S
C2959      O2960   1.266       .  A
C2959      C3957   1.471       .  S
O2961      C2976   1.260       .  A
O2961     Al2969   1.885       .  S
C2962      O2972   1.265       .  A
C2962      O2963   1.269       .  A
C2962      C4805   1.466       .  S
O2963     Al2965   1.930       .  S
O2964      C2966   1.262       .  A
O2964     Al2965   1.916       .  S
Al2965     O2973   1.933       .  S
Al2965     O2975   1.913       .  S
Al2965     O2974   1.792       .  S
C2966      O2979   1.256       .  A
C2966      C3909   1.491       .  S
O2967      C2977   1.262       .  A
O2967     Al2969   1.930       .  S
O2968      C2981   1.265       .  A
O2968     Al2978   1.908       .  S
Al2969     O2982   1.910       .  S
Al2969     O2979   1.893       .  S
Al2969     O2974   1.780       .  S
O2970      C2977   1.259       .  A
O2970     Al2978   1.916       .  S
O2971      C2980   1.253       .  A
O2971     Al2978   1.891       .  S
O2972     Al2978   1.877       .  S
O2973      C2980   1.261       .  A
O2974     Al2978   1.781       .  S
O2975      C2976   1.264       .  A
C2976      C3794   1.474       .  S
C2977      C4581   1.485       .  S
C2980      C3781   1.503       .  S
C2981      O2982   1.267       .  A
C2981      C4789   1.477       .  S
O2983      C2998   1.262       .  A
O2983     Al2991   1.884       .  S
C2984      O2994   1.262       .  A
C2984      O2985   1.266       .  A
C2984      C4754   1.461       .  S
O2985     Al2987   1.919       .  S
O2986      C2988   1.259       .  A
O2986     Al2987   1.916       .  S
Al2987     O2995   1.918       .  S
Al2987     O2997   1.915       .  S
Al2987     O2996   1.791       .  S
C2988      O3001   1.256       .  A
C2988      C3762   1.488       .  S
O2989      C2999   1.265       .  A
O2989     Al2991   1.927       .  S
O2990      C3003   1.265       .  A
O2990     Al3000   1.906       .  S
Al2991     O3004   1.902       .  S
Al2991     O3001   1.896       .  S
Al2991     O2996   1.781       .  S
O2992      C2999   1.262       .  A
O2992     Al3000   1.919       .  S
O2993      C3002   1.256       .  A
O2993     Al3000   1.898       .  S
O2994     Al3000   1.872       .  S
O2995      C3002   1.258       .  A
O2996     Al3000   1.782       .  S
O2997      C2998   1.266       .  A
C2998      C3746   1.470       .  S
C2999      C4933   1.480       .  S
C3002      C3778   1.492       .  S
C3003      O3004   1.260       .  A
C3003      C4738   1.484       .  S
C3006      O3016   1.270       .  A
C3006      O3007   1.261       .  A
C3006      C3714   1.467       .  S
O3007     Al3009   1.874       .  S
O3008      C3010   1.259       .  A
O3008     Al3009   1.914       .  S
Al3009     O3017   1.934       .  S
Al3009     O3019   1.903       .  S
Al3009     O3018   1.799       .  S
C3010      O3023   1.260       .  A
C3010      C4709   1.481       .  S
O3011      C3021   1.258       .  A
O3011     Al3013   1.915       .  S
O3012     Al3022   1.919       .  S
Al3013     O3023   1.909       .  S
Al3013     O3018   1.790       .  S
O3014      C3021   1.256       .  A
O3014     Al3022   1.887       .  S
O3015      C3024   1.252       .  A
O3015     Al3022   1.886       .  S
O3016     Al3022   1.934       .  S
O3017      C3024   1.258       .  A
O3018     Al3022   1.788       .  S
O3019      C3020   1.265       .  A
C3021      C3685   1.478       .  S
C3024      C3698   1.494       .  S
C3025      O3026   1.256       .  A
C3025      C3730   1.477       .  S
O3027      C3042   1.260       .  A
O3027     Al3035   1.878       .  S
C3028      O3038   1.262       .  A
C3028      O3029   1.269       .  A
C3028      C3653   1.469       .  S
Al3031     O3039   1.921       .  S
Al3031     O3041   1.914       .  S
Al3031     O3040   1.790       .  S
C3032      O3045   1.256       .  A
O3033      C3043   1.267       .  A
O3033     Al3035   1.937       .  S
O3034      C3047   1.270       .  A
O3034     Al3044   1.916       .  S
Al3035     O3048   1.895       .  S
Al3035     O3045   1.895       .  S
Al3035     O3040   1.786       .  S
O3036      C3043   1.258       .  A
O3036     Al3044   1.894       .  S
O3037      C3046   1.252       .  A
O3037     Al3044   1.894       .  S
O3039      C3046   1.256       .  A
O3040     Al3044   1.783       .  S
O3041      C3042   1.264       .  A
C3042      C3813   1.468       .  S
C3043      C3634   1.487       .  S
C3046      C3701   1.484       .  S
C3047      O3048   1.261       .  A
C3047      C3666   1.484       .  S
O3049      C3064   1.262       .  A
O3049     Al3057   1.885       .  S
C3050      O3060   1.263       .  A
C3050      O3051   1.266       .  A
C3050      C3586   1.470       .  S
O3051     Al3053   1.915       .  S
O3052      C3054   1.259       .  A
O3052     Al3053   1.908       .  S
Al3053     O3061   1.907       .  S
Al3053     O3063   1.896       .  S
Al3053     O3062   1.789       .  S
C3054      O3067   1.257       .  A
C3054      C4949   1.498       .  S
O3055      C3065   1.267       .  A
O3055     Al3057   1.926       .  S
O3056      C3069   1.263       .  A
O3056     Al3066   1.918       .  S
Al3057     O3070   1.904       .  S
Al3057     O3067   1.913       .  S
Al3057     O3062   1.783       .  S
O3058      C3065   1.264       .  A
O3058     Al3066   1.919       .  S
O3059      C3068   1.256       .  A
O3059     Al3066   1.898       .  S
O3060     Al3066   1.892       .  S
O3061      C3068   1.254       .  A
O3062     Al3066   1.788       .  S
O3063      C3064   1.262       .  A
C3064      C3618   1.460       .  S
C3065      C3554   1.483       .  S
C3068      C3570   1.481       .  S
C3069      O3070   1.262       .  A
C3069      C3602   1.486       .  S
O3071      C3086   1.263       .  A
O3071     Al3079   1.881       .  S
C3072      O3082   1.261       .  A
C3072      O3073   1.266       .  A
C3072      C3522   1.471       .  S
O3073     Al3075   1.927       .  S
O3074      C3076   1.258       .  A
O3074     Al3075   1.908       .  S
Al3075     O3083   1.917       .  S
Al3075     O3085   1.918       .  S
Al3075     O3084   1.795       .  S
C3076      O3089   1.258       .  A
C3076      C4037   1.488       .  S
O3077      C3087   1.268       .  A
O3077     Al3079   1.933       .  S
O3078      C3091   1.265       .  A
O3078     Al3088   1.919       .  S
Al3079     O3092   1.918       .  S
Al3079     O3089   1.909       .  S
Al3079     O3084   1.785       .  S
O3080      C3087   1.260       .  A
O3080     Al3088   1.905       .  S
O3081      C3090   1.255       .  A
O3081     Al3088   1.895       .  S
O3082     Al3088   1.881       .  S
O3083      C3090   1.257       .  A
O3084     Al3088   1.779       .  S
O3085      C3086   1.267       .  A
C3086      C3509   1.469       .  S
C3087      C3490   1.491       .  S
C3090      C3573   1.480       .  S
C3091      O3092   1.264       .  A
C3091      C3538   1.486       .  S
O3093      C3108   1.260       .  A
O3093     Al3101   1.870       .  S
C3094      O3104   1.262       .  A
C3094      O3095   1.266       .  A
C3094      C5029   1.468       .  S
Al3097     O3105   1.911       .  S
Al3097     O3107   1.901       .  S
Al3097     O3106   1.800       .  S
C3098      O3111   1.252       .  A
C3098      C3477   1.489   1_455  S
O3099      C3109   1.264       .  A
O3099     Al3101   1.930       .  S
O3100      C3113   1.265       .  A
O3100     Al3110   1.910       .  S
Al3101     O3114   1.897       .  S
Al3101     O3111   1.885       .  S
Al3101     O3106   1.787       .  S
O3102      C3109   1.258       .  A
O3102     Al3110   1.898       .  S
O3103      C3112   1.253       .  A
O3103     Al3110   1.887       .  S
O3105      C3112   1.254       .  A
O3106     Al3110   1.785       .  S
O3107      C3108   1.262       .  A
C3108      C3621   1.460       .  S
C3109      C4658   1.489       .  S
C3112      C3461   1.486       .  S
C3113      O3114   1.259       .  A
C3113      C5013   1.487       .  S
C3116      O3126   1.262       .  A
C3116      O3117   1.268       .  A
C3116      C4901   1.457       .  S
O3117     Al3119   1.919       .  S
O3118      C3120   1.259       .  A
O3118     Al3119   1.912       .  S
Al3119     O3127   1.928       .  S
Al3119     O3129   1.908       .  S
Al3119     O3128   1.797       .  S
C3120      O3133   1.255       .  A
C3120      C3986   1.490       .  S
O3121      C3131   1.265       .  A
O3121     Al3123   1.939       .  S
O3122     Al3132   1.900       .  S
Al3123     O3133   1.890       .  S
Al3123     O3128   1.786       .  S
O3124      C3131   1.254       .  A
O3124     Al3132   1.890       .  S
O3125      C3134   1.249       .  A
O3125     Al3132   1.876       .  S
O3126     Al3132   1.867       .  S
O3127      C3134   1.257       .  A
O3128     Al3132   1.786       .  S
O3129      C3130   1.262       .  A
C3131      C4722   1.493       .  S
C3134      C3458   1.491       .  S
C3135      O3136   1.260       .  A
C3135      C4885   1.484       .  S
O3137      C3152   1.262       .  A
O3137     Al3145   1.888       .  S
C3138      O3148   1.264       .  A
C3138      O3139   1.268       .  A
C3138      C4085   1.468       .  S
O3139     Al3141   1.927       .  S
O3140      C3142   1.262       .  A
O3140     Al3141   1.918       .  S
Al3141     O3149   1.925       .  S
Al3141     O3151   1.902       .  S
Al3141     O3150   1.789       .  S
C3142      O3155   1.259       .  A
C3142      C3426   1.495       .  S
O3143      C3153   1.266       .  A
O3143     Al3145   1.936       .  S
O3144      C3157   1.268       .  A
O3144     Al3154   1.920       .  S
Al3145     O3158   1.909       .  S
Al3145     O3155   1.908       .  S
Al3145     O3150   1.782       .  S
O3146      C3153   1.257       .  A
O3146     Al3154   1.897       .  S
O3147      C3156   1.255       .  A
O3147     Al3154   1.900       .  S
O3148     Al3154   1.887       .  S
O3149      C3156   1.258       .  A
O3150     Al3154   1.783       .  S
O3151      C3152   1.261       .  A
C3152      C3506   1.469       .  S
C3153      C3938   1.486       .  S
C3156      C3410   1.490       .  S
C3157      O3158   1.266       .  A
C3157      C4069   1.489       .  S
O3159      C3174   1.262       .  A
O3159     Al3167   1.896       .  S
C3160      O3170   1.269       .  A
C3160      O3161   1.261       .  A
C3160      C4018   1.492       .  S
O3161     Al3163   1.886       .  S
O3162      C3164   1.261       .  A
O3162     Al3163   1.913       .  S
Al3163     O3171   1.935       .  S
Al3163     O3173   1.917       .  S
Al3163     O3172   1.796       .  S
C3164      O3177   1.261       .  A
C3164      C4869   1.487       .  S
O3165      C3175   1.257       .  A
O3165     Al3167   1.911       .  S
O3166      C3179   1.265       .  A
O3166     Al3176   1.929       .  S
Al3167     O3180   1.875       .  S
Al3167     O3177   1.909       .  S
Al3167     O3172   1.794       .  S
O3168      C3175   1.254       .  A
O3168     Al3176   1.888       .  S
O3169      C3178   1.254       .  A
O3169     Al3176   1.892       .  S
O3170     Al3176   1.930       .  S
O3171      C3178   1.260       .  A
O3172     Al3176   1.790       .  S
O3173      C3174   1.267       .  A
C3174      C3445   1.466       .  S
C3175      C4178   1.472       .  S
C3178      C3413   1.500       .  S
C3179      O3180   1.257       .  A
C3179      C4005   1.478       .  S
O3181      C3196   1.258       .  A
O3181     Al3189   1.870       .  S
C3182      O3192   1.263       .  A
C3182      O3183   1.267       .  A
C3182      C3669   1.465       .  S
O3183     Al3185   1.925       .  S
O3184      C3186   1.255       .  A
O3184     Al3185   1.882       .  S
Al3185     O3193   1.883       .  S
Al3185     O3195   1.918       .  S
Al3185     O3194   1.785       .  S
C3186      O3199   1.261       .  A
C3186      C3845   1.481       .  S
O3187      C3197   1.262       .  A
O3187     Al3189   1.917       .  S
O3188      C3201   1.266       .  A
O3188     Al3198   1.905       .  S
Al3189     O3202   1.910       .  S
Al3189     O3199   1.926       .  S
Al3189     O3194   1.787       .  S
O3190      C3197   1.261       .  A
O3190     Al3198   1.919       .  S
O3191      C3200   1.260       .  A
O3191     Al3198   1.937       .  S
O3192     Al3198   1.878       .  S
O3193      C3200   1.252       .  A
O3194     Al3198   1.791       .  S
O3195      C3196   1.262       .  A
C3196      C3650   1.487       .  S
C3197      C3557   1.487   1_565  S
C3200      C3394   1.490       .  S
C3201      O3202   1.266       .  A
C3201      C3381   1.463       .  S
O3203      C3218   1.258       .  A
O3203     Al3211   1.876       .  S
C3204      O3214   1.264       .  A
C3204      O3205   1.270       .  A
C3204      C3733   1.471       .  S
O3205     Al3207   1.930       .  S
O3206      C3208   1.254       .  A
O3206     Al3207   1.882       .  S
Al3207     O3215   1.883       .  S
Al3207     O3217   1.914       .  S
Al3207     O3216   1.782       .  S
C3208      O3221   1.261       .  A
C3208      C3765   1.482       .  S
O3209      C3219   1.263       .  A
O3209     Al3211   1.927       .  S
O3210      C3223   1.267       .  A
O3210     Al3220   1.905       .  S
Al3211     O3224   1.912       .  S
Al3211     O3221   1.928       .  S
Al3211     O3216   1.788       .  S
O3212      C3219   1.258       .  A
O3212     Al3220   1.903       .  S
O3213      C3222   1.257       .  A
O3213     Al3220   1.930       .  S
O3214     Al3220   1.888       .  S
O3215      C3222   1.252       .  A
O3216     Al3220   1.792       .  S
O3217      C3218   1.262       .  A
C3218      C3717   1.477       .  S
C3219      C4405   1.489       .  S
C3222      C3397   1.496       .  S
C3223      O3224   1.269       .  A
C3223      C3362   1.467       .  S
O3225      C3240   1.258       .  A
O3225     Al3233   1.875       .  S
C3226      O3236   1.265       .  A
C3226      O3227   1.270       .  A
C3226      C4533   1.476       .  S
O3227     Al3229   1.934       .  S
O3228      C3230   1.257       .  A
O3228     Al3229   1.875       .  S
Al3229     O3237   1.891       .  S
Al3229     O3239   1.908       .  S
Al3229     O3238   1.785       .  S
C3230      O3243   1.264       .  A
C3230      C4341   1.486       .  S
O3231      C3241   1.261       .  A
O3231     Al3233   1.931       .  S
O3232      C3245   1.270       .  A
O3232     Al3242   1.917       .  S
Al3233     O3246   1.933       .  S
Al3233     O3243   1.935       .  S
Al3233     O3238   1.791       .  S
O3234      C3241   1.257       .  A
O3234     Al3242   1.885       .  S
O3235      C3244   1.254       .  A
O3235     Al3242   1.916       .  S
O3236     Al3242   1.884       .  S
O3237      C3244   1.251       .  A
O3238     Al3242   1.789       .  S
O3239      C3240   1.259       .  A
C3240      C4517   1.490       .  S
C3241      C3493   1.488       .  S
C3244      C3346   1.471       .  S
C3245      O3246   1.272       .  A
C3245      C3330   1.479       .  S
O3247      C3262   1.258       .  A
O3247     Al3255   1.872       .  S
C3248      O3258   1.259       .  A
C3248      O3249   1.265       .  A
C3248      C4437   1.464       .  S
O3249     Al3251   1.922       .  S
O3250      C3252   1.257       .  A
O3250     Al3251   1.893       .  S
Al3251     O3259   1.891       .  S
Al3251     O3261   1.918       .  S
Al3251     O3260   1.783       .  S
C3252      O3265   1.264       .  A
C3252      C4226   1.486       .  S
O3253      C3263   1.265       .  A
O3253     Al3255   1.920       .  S
O3254      C3267   1.264       .  A
O3254     Al3264   1.909       .  S
Al3255     O3268   1.921       .  S
Al3255     O3265   1.940       .  S
Al3255     O3260   1.782       .  S
O3256      C3263   1.264       .  A
O3256     Al3264   1.907       .  S
O3257      C3266   1.259       .  A
O3257     Al3264   1.923       .  S
O3258     Al3264   1.865       .  S
O3259      C3266   1.255       .  A
O3260     Al3264   1.785       .  S
O3261      C3262   1.263       .  A
C3262      C4418   1.471       .  S
C3263      C3682   1.488       .  S
C3266      C3349   1.475       .  S
C3267      O3268   1.267       .  A
C3267      C3365   1.471       .  S
O3269      C3284   1.258       .  A
O3269     Al3277   1.873       .  S
C3270      O3280   1.261       .  A
C3270      O3271   1.265       .  A
C3270      C3605   1.477       .  S
O3272      C3274   1.255       .  A
O3272     Al3273   1.893       .  S
Al3273     O3281   1.882       .  S
Al3273     O3283   1.916       .  S
Al3273     O3282   1.785       .  S
C3274      O3287   1.258       .  A
C3274      C3474   1.478       .  S
O3275      C3285   1.264       .  A
O3275     Al3277   1.918       .  S
O3276      C3289   1.262       .  A
O3276     Al3286   1.906       .  S
Al3277     O3290   1.912       .  S
Al3277     O3287   1.919       .  S
Al3277     O3282   1.795       .  S
O3278      C3285   1.265       .  A
O3278     Al3286   1.908       .  S
O3279      C3288   1.258       .  A
O3279     Al3286   1.925       .  S
O3281      C3288   1.254       .  A
O3282     Al3286   1.789       .  S
O3283      C3284   1.263       .  A
C3284      C3589   1.463       .  S
C3288      C3317   1.499       .  S
C3289      O3290   1.263       .  A
C3289      C3378   1.467       .  S
O3291      C3306   1.261       .  A
C3292      O3302   1.262       .  A
C3292      O3293   1.266       .  A
C3292      C3541   1.483       .  S
O3293     Al3295   1.918       .  S
O3294      C3296   1.255       .  A
O3294     Al3295   1.892       .  S
Al3295     O3303   1.879       .  S
Al3295     O3305   1.926       .  S
Al3295     O3304   1.785       .  S
C3296      O3309   1.261       .  A
C3296      C3429   1.486       .  S
O3297      C3307   1.266       .  A
O3297     Al3299   1.916       .  S
O3298      C3311   1.265       .  A
O3298     Al3308   1.921       .  S
Al3299     O3312   1.905       .  S
Al3299     O3309   1.933       .  S
Al3299     O3304   1.790       .  S
O3300      C3307   1.265       .  A
O3300     Al3308   1.916       .  S
O3301      C3310   1.262       .  A
O3301     Al3308   1.936       .  S
O3302     Al3308   1.895       .  S
O3303      C3310   1.253       .  A
O3304     Al3308   1.791       .  S
C3306      C3525   1.484       .  S
C3307      C4485   1.488       .  S
C3310      C3314   1.493       .  S
C3311      O3312   1.261       .  A
C3313      C3314   1.406       .  A
C3313      C3318   1.414       .  A
C3313      H3320   1.084       .  S
C3314      C3315   1.419       .  A
C3315      C3316   1.401       .  A
C3315      C3322   1.511       .  S
C3316      C3317   1.406       .  A
C3316      H3321   1.084       .  S
C3317      C3318   1.421       .  A
C3318      C3319   1.507       .  S
C3319      H3323   1.111       .  S
C3319      H3324   1.110       .  S
C3319      H3325   1.111       .  S
C3322      H3326   1.109       .  S
C3322      H3327   1.110       .  S
C3322      H3328   1.111       .  S
C3329      C3330   1.404       .  A
C3329      C3334   1.408       .  A
C3329      H3336   1.082       .  S
C3330      C3331   1.412       .  A
C3331      C3332   1.405       .  A
C3331      C3338   1.504       .  S
C3332      C3333   1.402       .  A
C3332      H3337   1.084       .  S
C3333      C3334   1.410       .  A
C3334      C3335   1.506       .  S
C3335      H3339   1.109       .  S
C3335      H3341   1.110       .  S
C3338      H3342   1.105       .  S
C3338      H3343   1.110       .  S
C3338      H3344   1.111       .  S
C3345      C3346   1.402       .  A
C3345      C3350   1.404   1_545  A
C3345      H3352   1.084       .  S
C3346      C3347   1.410       .  A
C3347      C3348   1.405   1_545  A
C3347      C3354   1.507       .  S
C3348      C3349   1.404       .  A
C3348      H3353   1.084       .  S
C3349      C3350   1.413       .  A
C3350      C3351   1.507       .  S
C3351      H3355   1.111       .  S
C3351      H3356   1.110       .  S
C3351      H3357   1.110       .  S
C3354      H3358   1.111       .  S
C3354      H3359   1.109       .  S
C3354      H3360   1.111       .  S
C3361      C3362   1.399       .  A
C3361      C3366   1.397       .  A
C3361      H3368   1.085       .  S
C3362      C3363   1.411       .  A
C3363      C3364   1.407       .  A
C3363      C3370   1.505       .  S
C3364      C3365   1.402       .  A
C3364      H3369   1.082       .  S
C3365      C3366   1.412       .  A
C3366      C3367   1.507       .  S
C3367      H3371   1.111       .  S
C3367      H3372   1.110       .  S
C3367      H3373   1.106       .  S
C3370      H3374   1.110       .  S
C3370      H3375   1.111       .  S
C3370      H3376   1.111       .  S
C3377      C3378   1.401   1_565  A
C3377      C3382   1.403       .  A
C3377      H3384   1.085       .  S
C3378      C3379   1.411       .  A
C3379      C3380   1.402       .  A
C3379      C3386   1.504       .  S
C3380      C3381   1.400   1_545  A
C3380      H3385   1.085       .  S
C3381      C3382   1.410       .  A
C3382      C3383   1.506       .  S
C3383      H3387   1.111       .  S
C3383      H3388   1.108       .  S
C3383      H3389   1.110       .  S
C3386      H3390   1.109       .  S
C3386      H3391   1.109       .  S
C3386      H3392   1.111       .  S
C3393      C3394   1.406       .  A
C3393      C3398   1.414       .  A
C3393      H3400   1.084       .  S
C3394      C3395   1.417       .  A
C3395      C3396   1.400       .  A
C3395      C3402   1.510       .  S
C3396      C3397   1.405       .  A
C3396      H3401   1.084       .  S
C3397      C3398   1.420       .  A
C3398      C3399   1.506       .  S
C3399      H3403   1.111       .  S
C3399      H3404   1.110       .  S
C3399      H3405   1.111       .  S
C3402      H3406   1.109       .  S
C3402      H3407   1.110       .  S
C3402      H3408   1.111       .  S
C3409      C3410   1.402       .  A
C3409      C3414   1.403   1_655  A
C3409      H3416   1.085       .  S
C3410      C3411   1.415       .  A
C3411      C3412   1.415   1_655  A
C3411      C3418   1.506       .  S
C3412      C3413   1.411       .  A
C3412      H3417   1.084       .  S
C3413      C3414   1.419       .  A
C3414      C3415   1.505       .  S
C3415      H3419   1.111       .  S
C3415      H3420   1.109       .  S
C3415      H3421   1.111       .  S
C3418      H3422   1.108       .  S
C3418      H3423   1.110       .  S
C3418      H3424   1.111       .  S
C3425      C3426   1.406       .  A
C3425      C3430   1.413       .  A
C3425      H3432   1.084       .  S
C3426      C3427   1.422       .  A
C3427      C3428   1.406       .  A
C3427      C3434   1.508       .  S
C3428      C3429   1.400       .  A
C3428      H3433   1.085       .  S
C3429      C3430   1.416       .  A
C3430      C3431   1.507       .  S
C3431      H3437   1.110       .  S
C3434      H3438   1.106       .  S
C3434      H3439   1.110       .  S
C3434      H3440   1.111       .  S
C3441      C3442   1.401       .  A
C3441      C3446   1.399       .  A
C3441      H3448   1.085       .  S
C3442      C3443   1.415       .  A
C3443      C3444   1.406       .  A
C3444      C3445   1.402       .  A
C3444      H3449   1.084       .  S
C3445      C3446   1.413       .  A
C3446      C3447   1.507       .  S
C3447      H3451   1.110       .  S
C3447      H3452   1.110       .  S
C3447      H3453   1.107       .  S
C3450      H3454   1.110       .  S
C3450      H3455   1.110       .  S
C3450      H3456   1.111       .  S
C3457      C3458   1.408       .  A
C3457      C3462   1.415       .  A
C3457      H3464   1.084       .  S
C3458      C3459   1.421       .  A
C3459      C3460   1.400       .  A
C3459      C3466   1.511       .  S
C3460      C3461   1.400       .  A
C3460      H3465   1.085       .  S
C3461      C3462   1.415       .  A
C3462      C3463   1.505       .  S
C3463      H3467   1.111       .  S
C3463      H3468   1.110       .  S
C3463      H3469   1.111       .  S
C3466      H3470   1.111       .  S
C3466      H3471   1.109       .  S
C3466      H3472   1.111       .  S
C3473      C3478   1.403       .  A
C3473      H3480   1.085       .  S
C3474      C3475   1.413       .  A
C3475      C3476   1.406       .  A
C3475      C3482   1.505       .  S
C3476      H3481   1.084   1_655  S
C3477      C3478   1.424       .  A
C3478      C3479   1.510       .  S
C3479      H3483   1.111       .  S
C3479      H3484   1.110       .  S
C3479      H3485   1.110       .  S
C3482      H3486   1.110       .  S
C3482      H3487   1.110       .  S
C3482      H3488   1.111       .  S
C3489      C3490   1.412       .  A
C3489      C3494   1.419       .  A
C3489      H3496   1.083       .  S
C3490      C3491   1.420       .  A
C3491      C3492   1.392       .  A
C3491      C3498   1.513       .  S
C3492      C3493   1.399       .  A
C3492      H3497   1.082       .  S
C3493      C3494   1.413       .  A
C3494      C3495   1.503       .  S
C3495      H3499   1.111       .  S
C3495      H3500   1.109       .  S
C3495      H3501   1.110       .  S
C3498      H3502   1.108       .  S
C3498      H3503   1.105       .  S
C3498      H3504   1.109       .  S
C3505      C3506   1.402       .  A
C3505      C3510   1.400       .  A
C3505      H3512   1.084       .  S
C3506      C3507   1.412       .  A
C3507      C3508   1.400       .  A
C3507      C3514   1.508       .  S
C3508      C3509   1.404       .  A
C3508      H3513   1.085       .  S
C3509      C3510   1.413       .  A
C3510      C3511   1.508       .  S
C3511      H3515   1.111       .  S
C3511      H3516   1.110       .  S
C3511      H3517   1.109       .  S
C3514      H3518   1.109       .  S
C3514      H3519   1.110       .  S
C3514      H3520   1.109       .  S
C3521      C3522   1.401       .  A
C3521      C3526   1.410       .  A
C3521      H3528   1.084       .  S
C3522      C3523   1.414       .  A
C3523      C3524   1.395       .  A
C3523      C3530   1.508       .  S
C3524      C3525   1.402       .  A
C3524      H3529   1.085       .  S
C3525      C3526   1.421       .  A
C3526      C3527   1.507       .  S
C3527      H3531   1.111       .  S
C3527      H3532   1.110       .  S
C3527      H3533   1.110       .  S
C3530      H3534   1.108       .  S
C3530      H3535   1.107       .  S
C3530      H3536   1.109       .  S
C3537      C3538   1.404       .  A
C3537      C3542   1.403       .  A
C3537      H3544   1.084       .  S
C3538      C3539   1.413       .  A
C3539      C3540   1.405       .  A
C3539      C3546   1.498       .  S
C3540      C3541   1.404       .  A
C3540      H3545   1.084       .  S
C3541      C3542   1.416       .  A
C3542      C3543   1.507       .  S
C3543      H3547   1.111       .  S
C3543      H3548   1.111       .  S
C3543      H3549   1.109       .  S
C3546      H3550   1.109       .  S
C3546      H3551   1.109       .  S
C3546      H3552   1.111       .  S
C3553      C3554   1.403       .  A
C3553      C3558   1.405       .  A
C3553      H3560   1.085       .  S
C3554      C3555   1.412       .  A
C3555      C3556   1.413       .  A
C3555      C3562   1.506       .  S
C3556      C3557   1.408       .  A
C3556      H3561   1.084       .  S
C3557      C3558   1.415       .  A
C3558      C3559   1.508   1_545  S
C3559      H3563   1.111   1_565  S
C3559      H3564   1.109       .  S
C3559      H3565   1.109       .  S
C3562      H3566   1.111       .  S
C3562      H3567   1.110       .  S
C3562      H3568   1.111       .  S
C3569      C3570   1.408       .  A
C3569      C3574   1.414       .  A
C3569      H3576   1.084       .  S
C3570      C3571   1.412       .  A
C3571      C3572   1.400       .  A
C3571      C3578   1.510       .  S
C3572      C3573   1.398       .  A
C3572      H3577   1.075       .  S
C3573      C3574   1.412       .  A
C3574      C3575   1.504       .  S
C3575      H3579   1.111       .  S
C3575      H3580   1.110       .  S
C3575      H3581   1.111       .  S
C3578      H3582   1.111       .  S
C3578      H3583   1.109       .  S
C3578      H3584   1.110       .  S
C3585      C3586   1.402       .  A
C3585      C3590   1.406       .  A
C3585      H3592   1.084       .  S
C3586      C3587   1.412       .  A
C3587      C3588   1.397       .  A
C3587      C3594   1.501       .  S
C3588      C3589   1.395       .  A
C3588      H3593   1.082       .  S
C3589      C3590   1.411       .  A
C3590      C3591   1.506       .  S
C3591      H3595   1.111       .  S
C3591      H3596   1.110       .  S
C3591      H3597   1.108       .  S
C3594      H3598   1.108       .  S
C3594      H3599   1.110       .  S
C3594      H3600   1.111       .  S
C3601      C3602   1.406       .  A
C3601      C3606   1.397       .  A
C3601      H3608   1.084       .  S
C3602      C3603   1.417       .  A
C3603      C3604   1.410       .  A
C3603      C3610   1.507       .  S
C3604      C3605   1.406       .  A
C3604      H3609   1.084       .  S
C3605      C3606   1.411       .  A
C3606      C3607   1.509       .  S
C3607      H3611   1.111       .  S
C3607      H3612   1.111       .  S
C3607      H3613   1.107       .  S
C3610      H3614   1.111       .  S
C3610      H3615   1.110       .  S
C3610      H3616   1.111       .  S
C3617      C3618   1.401   1_455  A
C3617      C3622   1.395       .  A
C3617      H3624   1.085       .  S
C3618      C3619   1.410       .  A
C3619      C3620   1.399       .  A
C3619      C3626   1.508       .  S
C3620      C3621   1.402   1_655  A
C3620      H3625   1.084       .  S
C3621      C3622   1.412       .  A
C3622      C3623   1.510       .  S
C3623      H3627   1.111       .  S
C3623      H3628   1.110       .  S
C3623      H3629   1.109       .  S
C3626      H3630   1.111       .  S
C3626      H3631   1.109       .  S
C3626      H3632   1.111       .  S
C3633      C3634   1.406       .  A
C3634      C3635   1.421       .  A
C3635      C3636   1.396       .  A
C3635      C3642   1.510       .  S
C3636      C3637   1.398   1_565  A
C3636      H3641   1.084   1_565  S
C3638      C3639   1.505   1_565  S
C3639      H3643   1.111   1_545  S
C3639      H3644   1.110       .  S
C3639      H3645   1.110       .  S
C3642      H3646   1.101       .  S
C3642      H3647   1.110       .  S
C3642      H3648   1.111       .  S
C3649      C3650   1.406       .  A
C3649      C3654   1.396       .  A
C3649      H3656   1.084       .  S
C3650      C3651   1.421       .  A
C3651      C3652   1.409       .  A
C3651      C3658   1.507       .  S
C3652      C3653   1.400       .  A
C3652      H3657   1.084       .  S
C3653      C3654   1.410       .  A
C3654      C3655   1.509       .  S
C3655      H3659   1.111       .  S
C3655      H3660   1.110       .  S
C3655      H3661   1.108       .  S
C3658      H3662   1.110       .  S
C3658      H3663   1.110       .  S
C3658      H3664   1.111       .  S
C3665      C3666   1.407       .  A
C3665      C3670   1.405       .  A
C3665      H3672   1.084       .  S
C3666      C3667   1.426       .  A
C3667      C3668   1.395       .  A
C3667      C3674   1.513       .  S
C3668      C3669   1.394       .  A
C3668      H3673   1.084       .  S
C3669      C3670   1.408       .  A
C3670      C3671   1.505       .  S
C3671      H3675   1.111       .  S
C3671      H3676   1.110       .  S
C3671      H3677   1.109       .  S
C3674      H3678   1.106       .  S
C3674      H3679   1.110       .  S
C3674      H3680   1.111       .  S
C3681      C3682   1.404       .  A
C3681      C3686   1.399       .  A
C3681      H3688   1.085       .  S
C3682      C3683   1.419       .  A
C3683      C3684   1.413       .  A
C3683      C3690   1.506       .  S
C3684      C3685   1.403       .  A
C3684      H3689   1.084       .  S
C3685      C3686   1.412       .  A
C3686      C3687   1.509       .  S
C3687      H3691   1.111       .  S
C3687      H3692   1.108       .  S
C3687      H3693   1.109       .  S
C3690      H3694   1.110       .  S
C3690      H3695   1.110       .  S
C3690      H3696   1.111       .  S
C3697      C3698   1.410       .  A
C3697      C3702   1.414       .  A
C3697      H3704   1.084       .  S
C3698      C3699   1.419       .  A
C3699      C3700   1.403       .  A
C3699      C3706   1.508       .  S
C3700      C3701   1.401       .  A
C3700      H3705   1.085       .  S
C3701      C3702   1.412       .  A
C3702      C3703   1.506       .  S
C3703      H3707   1.111       .  S
C3703      H3708   1.111       .  S
C3703      H3709   1.110       .  S
C3706      H3710   1.109       .  S
C3713      C3714   1.400       .  A
C3713      C3718   1.407       .  A
C3713      H3720   1.084       .  S
C3714      C3715   1.411       .  A
C3715      C3716   1.398       .  A
C3715      C3722   1.509       .  S
C3716      C3717   1.403       .  A
C3716      H3721   1.084       .  S
C3717      C3718   1.417       .  A
C3718      C3719   1.507       .  S
C3719      H3723   1.111       .  S
C3719      H3724   1.110       .  S
C3719      H3725   1.110       .  S
C3722      H3726   1.109       .  S
C3722      H3727   1.110       .  S
C3722      H3728   1.111       .  S
C3729      C3730   1.403       .  A
C3729      C3734   1.405       .  A
C3729      H3736   1.080       .  S
C3730      C3731   1.416       .  A
C3731      C3732   1.401       .  A
C3731      C3738   1.509       .  S
C3732      C3733   1.401       .  A
C3732      H3737   1.085       .  S
C3733      C3734   1.410       .  A
C3734      C3735   1.506       .  S
C3735      H3739   1.111       .  S
C3735      H3740   1.111       .  S
C3735      H3741   1.110       .  S
C3738      H3742   1.110       .  S
C3738      H3743   1.109       .  S
C3738      H3744   1.111       .  S
C3745      C3746   1.404       .  A
C3745      C3750   1.401       .  A
C3745      H3752   1.084       .  S
C3746      C3747   1.414       .  A
C3747      C3748   1.400       .  A
C3747      C3754   1.508       .  S
C3748      C3749   1.400       .  A
C3749      C3750   1.408       .  A
C3750      C3751   1.507       .  S
C3751      H3755   1.111       .  S
C3751      H3756   1.110       .  S
C3751      H3757   1.109       .  S
C3754      H3758   1.110       .  S
C3754      H3759   1.107       .  S
C3754      H3760   1.111   1_556  S
C3761      C3762   1.408       .  A
C3761      C3766   1.404       .  A
C3761      H3768   1.084       .  S
C3762      C3763   1.414       .  A
C3763      C3764   1.412       .  A
C3763      C3770   1.507       .  S
C3764      C3765   1.407       .  A
C3764      H3769   1.084       .  S
C3765      C3766   1.411       .  A
C3766      C3767   1.508       .  S
C3767      H3771   1.111       .  S
C3767      H3772   1.110       .  S
C3767      H3773   1.109       .  S
C3770      H3774   1.111       .  S
C3770      H3775   1.109       .  S
C3770      H3776   1.111       .  S
C3777      C3778   1.400       .  A
C3777      C3782   1.403       .  A
C3777      H3784   1.085       .  S
C3778      C3779   1.416       .  A
C3779      C3780   1.416       .  A
C3779      C3786   1.505       .  S
C3780      C3781   1.410       .  A
C3780      H3785   1.084       .  S
C3781      C3782   1.426       .  A
C3782      C3783   1.511       .  S
C3783      H3787   1.111       .  S
C3783      H3788   1.109       .  S
C3783      H3789   1.110       .  S
C3786      H3790   1.110       .  S
C3786      H3791   1.111       .  S
C3786      H3792   1.111       .  S
C3793      C3794   1.404       .  A
C3793      C3798   1.402       .  A
C3793      H3800   1.084       .  S
C3794      C3795   1.413       .  A
C3795      C3796   1.401       .  A
C3795      C3802   1.509       .  S
C3796      C3797   1.404       .  A
C3796      H3801   1.085       .  S
C3797      C3798   1.411       .  A
C3798      C3799   1.505       .  S
C3799      H3803   1.111       .  S
C3799      H3804   1.109       .  S
C3799      H3805   1.109       .  S
C3802      H3806   1.109       .  S
C3802      H3807   1.109       .  S
C3802      H3808   1.111       .  S
C3809      C3810   1.400       .  A
C3809      C3814   1.401       .  A
C3809      H3816   1.085       .  S
C3810      C3811   1.411       .  A
C3811      C3812   1.400       .  A
C3811      C3818   1.509       .  S
C3812      C3813   1.403       .  A
C3812      H3817   1.085       .  S
C3813      C3814   1.414       .  A
C3814      C3815   1.509       .  S
C3815      H3819   1.111       .  S
C3815      H3820   1.110       .  S
C3815      H3821   1.109       .  S
C3818      H3822   1.110       .  S
C3818      H3823   1.110       .  S
C3818      H3824   1.110       .  S
C3825      C3826   1.403       .  A
C3825      C3830   1.400       .  A
C3825      H3832   1.085       .  S
C3826      C3827   1.417       .  A
C3827      C3828   1.412       .  A
C3827      C3834   1.504       .  S
C3828      C3829   1.405       .  A
C3828      H3833   1.084       .  S
C3829      C3830   1.413       .  A
C3830      C3831   1.504       .  S
C3831      H3835   1.111       .  S
C3831      H3836   1.109       .  S
C3831      H3837   1.109       .  S
C3834      H3838   1.110       .  S
C3834      H3839   1.109       .  S
C3834      H3840   1.111       .  S
C3841      C3842   1.403       .  A
C3841      C3846   1.405       .  A
C3841      H3848   1.085       .  S
C3842      C3843   1.410       .  A
C3843      C3844   1.409       .  A
C3843      C3850   1.504       .  S
C3844      C3845   1.406       .  A
C3844      H3849   1.084       .  S
C3845      C3846   1.415       .  A
C3846      C3847   1.508       .  S
C3847      H3851   1.111       .  S
C3847      H3852   1.110       .  S
C3847      H3853   1.109       .  S
C3850      H3854   1.110       .  S
C3850      H3855   1.110       .  S
C3850      H3856   1.111       .  S
C3857      C3862   1.406       .  A
C3857      H3864   1.079       .  S
C3858      C3859   1.410   1_556  A
C3859      C3860   1.401       .  A
C3859      C3866   1.509       .  S
C3860      C3861   1.406       .  A
C3860      H3865   1.085       .  S
C3862      C3863   1.506       .  S
C3863      H3867   1.111       .  S
C3863      H3868   1.109       .  S
C3863      H3869   1.110       .  S
C3866      H3870   1.110       .  S
C3866      H3871   1.109       .  S
C3866      H3872   1.111       .  S
C3873      C3874   1.401       .  A
C3873      C3878   1.399       .  A
C3873      H3880   1.085       .  S
C3874      C3875   1.411       .  A
C3875      C3876   1.407       .  A
C3875      C3882   1.506       .  S
C3876      C3877   1.406       .  A
C3876      H3881   1.084       .  S
C3877      C3878   1.414       .  A
C3878      C3879   1.509       .  S
C3879      H3883   1.111       .  S
C3879      H3884   1.109       .  S
C3879      H3885   1.109       .  S
C3882      H3886   1.110       .  S
C3882      H3887   1.110       .  S
C3882      H3888   1.111       .  S
C3889      C3890   1.403       .  A
C3889      C3894   1.405       .  A
C3889      H3896   1.085       .  S
C3890      C3891   1.408       .  A
C3891      C3892   1.399       .  A
C3891      C3898   1.507       .  S
C3892      C3893   1.404       .  A
C3892      H3897   1.082       .  S
C3893      C3894   1.413       .  A
C3894      C3895   1.505       .  S
C3895      H3899   1.111       .  S
C3895      H3900   1.109       .  S
C3895      H3901   1.108       .  S
C3898      H3902   1.110       .  S
C3898      H3903   1.109       .  S
C3898      H3904   1.110       .  S
C3905      C3906   1.397       .  A
C3905      C3910   1.404       .  A
C3905      H3912   1.085       .  S
C3906      C3907   1.413       .  A
C3907      C3908   1.409       .  A
C3907      C3914   1.507       .  S
C3908      C3909   1.406       .  A
C3908      H3913   1.084       .  S
C3909      C3910   1.423       .  A
C3910      C3911   1.509       .  S
C3911      H3915   1.111       .  S
C3911      H3916   1.108       .  S
C3911      H3917   1.110       .  S
C3914      H3918   1.110       .  S
C3914      H3919   1.110       .  S
C3914      H3920   1.111   1_556  S
C3921      C3922   1.409       .  A
C3921      C3926   1.409       .  A
C3921      H3928   1.084       .  S
C3922      C3923   1.421       .  A
C3923      C3924   1.405       .  A
C3923      C3930   1.509   1_556  S
C3924      C3925   1.399       .  A
C3924      H3929   1.084   1_556  S
C3925      C3926   1.409       .  A
C3926      C3927   1.505       .  S
C3927      H3931   1.111       .  S
C3927      H3932   1.110       .  S
C3927      H3933   1.111       .  S
C3930      H3935   1.109   1_554  S
C3937      C3938   1.404       .  A
C3937      C3942   1.413       .  A
C3937      H3944   1.084       .  S
C3938      C3939   1.418       .  A
C3939      C3940   1.401       .  A
C3939      C3946   1.510       .  S
C3940      C3941   1.400       .  A
C3940      H3945   1.082       .  S
C3941      C3942   1.420       .  A
C3942      C3943   1.506       .  S
C3943      H3947   1.111       .  S
C3943      H3948   1.110       .  S
C3943      H3949   1.110       .  S
C3946      H3950   1.109       .  S
C3946      H3951   1.108       .  S
C3946      H3952   1.111       .  S
C3953      C3954   1.409       .  A
C3953      C3958   1.409       .  A
C3953      H3960   1.084       .  S
C3954      C3955   1.422       .  A
C3955      C3956   1.398       .  A
C3955      C3962   1.509       .  S
C3956      C3957   1.397       .  A
C3956      H3961   1.085       .  S
C3957      C3958   1.410       .  A
C3958      C3959   1.506       .  S
C3959      H3963   1.111       .  S
C3959      H3964   1.108       .  S
C3959      H3965   1.110       .  S
C3962      H3966   1.111       .  S
C3962      H3967   1.110       .  S
C3962      H3968   1.110       .  S
C3969      C3970   1.407       .  A
C3969      C3974   1.406       .  A
C3969      H3976   1.084       .  S
C3970      C3971   1.423       .  A
C3971      C3972   1.396       .  A
C3971      C3978   1.511       .  S
C3972      C3973   1.397       .  A
C3972      H3977   1.085       .  S
C3973      C3974   1.410       .  A
C3974      C3975   1.501       .  S
C3975      H3979   1.111       .  S
C3975      H3980   1.106       .  S
C3975      H3981   1.110       .  S
C3978      H3982   1.109       .  S
C3978      H3983   1.111       .  S
C3978      H3984   1.111       .  S
C3985      C3986   1.408       .  A
C3985      C3990   1.404       .  A
C3985      H3992   1.084       .  S
C3986      C3987   1.416       .  A
C3987      C3988   1.412       .  A
C3987      C3994   1.507       .  S
C3988      C3989   1.406       .  A
C3988      H3993   1.084       .  S
C3989      C3990   1.411       .  A
C3990      C3991   1.508       .  S
C3991      H3995   1.111       .  S
C3991      H3996   1.110       .  S
C3991      H3997   1.109       .  S
C3994      H3998   1.110       .  S
C3994      H3999   1.109       .  S
C3994      H4000   1.111       .  S
C4001      C4002   1.400       .  A
C4001      H4008   1.083       .  S
C4002      C4003   1.409       .  A
C4003      C4010   1.506       .  S
C4004      C4005   1.404       .  A
C4004      H4009   1.078       .  S
C4005      C4006   1.415       .  A
C4006      C4007   1.508       .  S
C4007      H4011   1.111       .  S
C4007      H4012   1.109       .  S
C4007      H4013   1.109       .  S
C4010      H4014   1.110       .  S
C4010      H4015   1.110       .  S
C4010      H4016   1.111       .  S
C4017      C4018   1.408       .  A
C4017      C4022   1.406       .  A
C4017      H4024   1.084       .  S
C4018      C4019   1.424       .  A
C4019      C4020   1.404       .  A
C4019      C4026   1.506       .  S
C4020      C4021   1.395       .  A
C4020      H4025   1.085       .  S
C4021      C4022   1.409       .  A
C4022      C4023   1.507       .  S
C4023      H4027   1.111       .  S
C4023      H4028   1.109       .  S
C4023      H4029   1.109       .  S
C4026      H4030   1.109       .  S
C4026      H4031   1.111       .  S
C4026      H4032   1.111       .  S
C4033      C4034   1.405       .  A
C4033      C4038   1.409       .  A
C4033      H4040   1.084       .  S
C4034      C4035   1.411       .  A
C4035      C4036   1.405       .  A
C4035      C4042   1.505       .  S
C4036      C4037   1.407       .  A
C4036      H4041   1.085       .  S
C4037      C4038   1.414       .  A
C4038      C4039   1.504       .  S
C4039      H4043   1.111       .  S
C4039      H4044   1.107       .  S
C4039      H4045   1.109       .  S
C4042      H4046   1.109       .  S
C4042      H4047   1.110       .  S
C4042      H4048   1.111       .  S
C4049      C4050   1.404       .  A
C4049      C4054   1.407       .  A
C4049      H4056   1.084       .  S
C4050      C4051   1.412       .  A
C4051      C4052   1.402       .  A
C4051      C4058   1.504       .  S
C4052      C4053   1.399       .  A
C4053      C4054   1.410       .  A
C4054      C4055   1.505       .  S
C4055      H4059   1.111       .  S
C4055      H4060   1.110       .  S
C4055      H4061   1.109       .  S
C4058      H4062   1.104       .  S
C4058      H4063   1.110       .  S
C4058      H4064   1.111       .  S
C4065      C4066   1.404       .  A
C4065      C4070   1.411       .  A
C4065      H4072   1.084       .  S
C4066      C4067   1.410       .  A
C4067      C4068   1.396       .  A
C4067      C4074   1.509       .  S
C4068      C4069   1.406       .  A
C4068      H4073   1.083       .  S
C4069      C4070   1.418       .  A
C4070      C4071   1.505       .  S
C4071      H4075   1.111       .  S
C4071      H4076   1.108       .  S
C4071      H4077   1.110       .  S
C4074      H4078   1.109       .  S
C4074      H4079   1.103       .  S
C4074      H4080   1.111       .  S
C4081      C4082   1.407       .  A
C4081      H4088   1.084       .  S
C4082      C4083   1.422       .  A
C4083      C4084   1.408       .  A
C4083      C4090   1.507       .  S
C4085      C4086   1.410       .  A
C4086      C4087   1.508       .  S
C4087      H4091   1.111       .  S
C4087      H4092   1.110       .  S
C4087      H4093   1.109       .  S
C4090      H4094   1.110       .  S
C4090      H4095   1.110       .  S
C4090      H4096   1.111       .  S
C4097      C4098   1.405       .  A
C4097      C4102   1.417   1_655  A
C4097      H4104   1.084       .  S
C4098      C4099   1.412       .  A
C4099      C4100   1.404   1_655  A
C4099      C4106   1.509       .  S
C4100      C4101   1.410       .  A
C4100      H4105   1.083       .  S
C4101      C4102   1.423       .  A
C4102      C4103   1.506       .  S
C4103      H4107   1.111       .  S
C4103      H4108   1.110       .  S
C4103      H4109   1.110       .  S
C4106      H4110   1.109       .  S
C4106      H4111   1.110       .  S
C4106      H4112   1.111       .  S
C4113      C4114   1.413       .  A
C4113      C4118   1.420       .  A
C4113      H4120   1.083       .  S
C4114      C4115   1.424       .  A
C4115      C4116   1.402       .  A
C4115      C4122   1.513       .  S
C4116      C4117   1.404       .  A
C4116      H4121   1.084       .  S
C4117      C4118   1.416       .  A
C4118      C4119   1.504       .  S
C4119      H4123   1.111       .  S
C4119      H4124   1.111       .  S
C4119      H4125   1.110       .  S
C4122      H4126   1.109       .  S
C4122      H4127   1.106       .  S
C4122      H4128   1.111       .  S
C4129      C4130   1.400   1_455  A
C4129      C4134   1.400       .  A
C4129      H4136   1.085       .  S
C4130      C4131   1.408       .  A
C4131      C4132   1.403       .  A
C4131      C4138   1.506       .  S
C4132      C4133   1.404   1_655  A
C4132      H4137   1.084       .  S
C4133      C4134   1.414       .  A
C4134      C4135   1.508       .  S
C4135      H4139   1.111       .  S
C4135      H4140   1.107       .  S
C4135      H4141   1.110       .  S
C4138      H4142   1.110       .  S
C4138      H4143   1.109       .  S
C4138      H4144   1.111       .  S
C4145      C4146   1.407       .  A
C4145      C4150   1.400       .  A
C4145      H4152   1.083       .  S
C4146      C4147   1.428       .  A
C4147      C4148   1.409       .  A
C4147      C4154   1.508       .  S
C4148      C4149   1.397       .  A
C4148      H4153   1.084       .  S
C4149      C4150   1.410       .  A
C4150      C4151   1.509       .  S
C4151      H4155   1.111       .  S
C4151      H4156   1.109       .  S
C4151      H4157   1.109       .  S
C4154      H4158   1.110   1_655  S
C4154      H4159   1.110       .  S
C4154      H4160   1.111       .  S
C4161      C4162   1.408       .  A
C4161      C4166   1.411       .  A
C4161      H4168   1.084       .  S
C4162      C4163   1.418       .  A
C4163      C4164   1.398       .  A
C4163      C4170   1.511       .  S
C4164      C4165   1.407       .  A
C4164      H4169   1.084       .  S
C4165      C4166   1.418       .  A
C4166      C4167   1.506       .  S
C4167      H4171   1.111       .  S
C4167      H4172   1.110       .  S
C4167      H4173   1.110       .  S
C4170      H4174   1.110       .  S
C4170      H4175   1.111       .  S
C4170      H4176   1.111       .  S
C4177      C4178   1.400       .  A
C4177      C4182   1.403       .  A
C4177      H4184   1.084       .  S
C4178      C4179   1.411       .  A
C4179      C4180   1.408       .  A
C4179      C4186   1.506       .  S
C4180      C4181   1.406       .  A
C4180      H4185   1.084       .  S
C4181      C4182   1.412       .  A
C4182      C4183   1.504       .  S
C4183      H4187   1.111       .  S
C4183      H4188   1.109       .  S
C4183      H4189   1.110       .  S
C4186      H4190   1.111       .  S
C4186      H4191   1.110       .  S
C4186      H4192   1.111       .  S
C4193      C4194   1.400       .  A
C4193      C4198   1.402       .  A
C4193      H4200   1.083       .  S
C4194      C4195   1.411       .  A
C4195      C4196   1.405       .  A
C4195      C4202   1.507       .  S
C4196      C4197   1.403       .  A
C4196      H4201   1.081       .  S
C4197      C4198   1.411       .  A
C4198      C4199   1.506       .  S
C4199      H4203   1.111       .  S
C4199      H4204   1.110       .  S
C4199      H4205   1.106       .  S
C4202      H4206   1.110       .  S
C4202      H4207   1.110       .  S
C4202      H4208   1.111       .  S
C4209      C4210   1.406       .  A
C4209      C4214   1.410       .  A
C4209      H4216   1.084       .  S
C4210      C4211   1.411       .  A
C4211      C4212   1.407       .  A
C4211      C4218   1.505       .  S
C4212      C4213   1.403       .  A
C4212      H4217   1.081       .  S
C4213      C4214   1.411       .  A
C4214      C4215   1.506       .  S
C4215      H4219   1.111       .  S
C4215      H4220   1.110       .  S
C4215      H4221   1.110       .  S
C4218      H4222   1.110       .  S
C4218      H4223   1.110       .  S
C4218      H4224   1.111       .  S
C4225      C4226   1.400       .  A
C4225      C4230   1.408       .  A
C4225      H4232   1.084       .  S
C4226      C4227   1.414       .  A
C4227      C4228   1.411       .  A
C4227      C4234   1.505       .  S
C4228      C4229   1.406       .  A
C4228      H4233   1.080       .  S
C4229      C4230   1.424       .  A
C4230      C4231   1.508       .  S
C4231      H4235   1.111       .  S
C4231      H4236   1.106       .  S
C4231      H4237   1.110       .  S
C4234      H4238   1.108       .  S
C4234      H4239   1.110       .  S
C4234      H4240   1.111       .  S
C4241      C4242   1.395       .  A
C4241      C4246   1.396       .  A
C4241      H4248   1.075       .  S
C4242      C4243   1.408       .  A
C4243      C4244   1.401       .  A
C4243      C4250   1.506       .  S
C4244      C4245   1.404       .  A
C4244      H4249   1.084       .  S
C4245      C4246   1.413       .  A
C4246      C4247   1.505       .  S
C4247      H4251   1.111       .  S
C4247      H4252   1.110       .  S
C4247      H4253   1.109       .  S
C4250      H4254   1.110       .  S
C4250      H4255   1.107       .  S
C4250      H4256   1.111       .  S
C4257      C4258   1.404       .  A
C4257      C4262   1.399       .  A
C4257      H4264   1.079       .  S
C4258      C4259   1.421       .  A
C4259      C4260   1.404       .  A
C4259      C4266   1.509       .  S
C4260      C4261   1.399       .  A
C4260      H4265   1.083       .  S
C4261      C4262   1.409       .  A
C4262      C4263   1.506       .  S
C4263      H4267   1.111       .  S
C4263      H4268   1.110       .  S
C4263      H4269   1.109       .  S
C4266      H4270   1.111       .  S
C4266      H4271   1.109       .  S
C4266      H4272   1.111       .  S
C4273      C4274   1.403       .  A
C4273      C4278   1.399       .  A
C4273      H4280   1.085       .  S
C4274      C4275   1.415       .  A
C4275      C4276   1.416       .  A
C4275      C4282   1.504       .  S
C4276      C4277   1.409   1_455  A
C4277      C4278   1.418   1_655  A
C4278      C4279   1.511   1_455  S
C4279      H4283   1.111   1_655  S
C4279      H4285   1.110       .  S
C4282      H4287   1.110       .  S
C4282      H4288   1.111       .  S
C4289      C4290   1.409       .  A
C4289      C4294   1.418       .  A
C4289      H4296   1.084       .  S
C4290      C4291   1.415       .  A
C4291      C4292   1.402       .  A
C4291      C4298   1.507       .  S
C4292      C4293   1.405       .  A
C4292      H4297   1.084       .  S
C4293      C4294   1.419       .  A
C4295      H4299   1.111       .  S
C4295      H4301   1.110       .  S
C4298      H4302   1.109       .  S
C4298      H4303   1.108       .  S
C4298      H4304   1.111       .  S
C4305      C4306   1.402       .  A
C4305      C4310   1.409       .  A
C4305      H4312   1.084       .  S
C4306      C4307   1.403       .  A
C4307      C4308   1.387       .  A
C4307      C4314   1.507       .  S
C4308      C4309   1.409       .  A
C4308      H4313   1.083       .  S
C4309      C4310   1.419       .  A
C4310      C4311   1.506       .  S
C4311      H4315   1.111       .  S
C4311      H4316   1.110       .  S
C4311      H4317   1.110       .  S
C4314      H4318   1.109       .  S
C4314      H4319   1.110       .  S
C4314      H4320   1.111       .  S
C4321      C4322   1.403       .  A
C4321      C4326   1.397       .  A
C4321      H4328   1.085       .  S
C4322      C4323   1.415       .  A
C4323      C4324   1.404       .  A
C4323      C4330   1.507       .  S
C4324      C4325   1.401       .  A
C4324      H4329   1.084       .  S
C4325      C4326   1.409       .  A
C4326      C4327   1.506       .  S
C4327      H4331   1.111       .  S
C4327      H4332   1.111       .  S
C4327      H4333   1.108       .  S
C4330      H4334   1.109       .  S
C4330      H4335   1.110       .  S
C4330      H4336   1.111       .  S
C4337      C4338   1.414       .  A
C4337      C4342   1.417       .  A
C4337      H4344   1.083       .  S
C4338      C4339   1.424       .  A
C4339      C4340   1.398       .  A
C4339      C4346   1.512       .  S
C4340      C4341   1.400       .  A
C4340      H4345   1.085       .  S
C4341      C4342   1.411       .  A
C4342      C4343   1.504       .  S
C4343      H4347   1.111       .  S
C4343      H4348   1.110       .  S
C4343      H4349   1.111       .  S
C4346      H4350   1.109       .  S
C4346      H4351   1.110       .  S
C4346      H4352   1.111       .  S
C4353      C4354   1.403   1_545  A
C4353      C4358   1.403       .  A
C4353      H4360   1.084       .  S
C4354      C4355   1.415       .  A
C4355      C4356   1.403       .  A
C4355      C4362   1.508       .  S
C4356      C4357   1.402   1_565  A
C4356      H4361   1.085       .  S
C4357      C4358   1.413       .  A
C4358      C4359   1.508       .  S
C4359      H4363   1.111       .  S
C4359      H4364   1.110       .  S
C4359      H4365   1.109       .  S
C4362      H4366   1.109       .  S
C4362      H4367   1.109       .  S
C4362      H4368   1.111       .  S
C4369      C4370   1.406       .  A
C4369      C4374   1.410       .  A
C4369      H4376   1.084       .  S
C4370      C4371   1.420       .  A
C4371      C4372   1.403       .  A
C4371      C4378   1.510       .  S
C4372      C4373   1.399       .  A
C4372      H4377   1.085       .  S
C4373      C4374   1.412       .  A
C4374      C4375   1.505       .  S
C4375      H4379   1.111       .  S
C4375      H4380   1.110       .  S
C4375      H4381   1.111       .  S
C4378      H4382   1.111       .  S
C4378      H4383   1.109       .  S
C4378      H4384   1.111       .  S
C4385      C4386   1.404   1_565  A
C4385      C4390   1.401       .  A
C4385      H4392   1.080   1_565  S
C4386      C4387   1.425   1_545  A
C4387      C4388   1.406       .  A
C4387      C4394   1.508       .  S
C4388      C4389   1.396       .  A
C4388      H4393   1.084       .  S
C4389      C4390   1.413       .  A
C4390      C4391   1.510       .  S
C4391      H4395   1.111       .  S
C4391      H4396   1.109       .  S
C4391      H4397   1.110       .  S
C4394      H4398   1.111       .  S
C4394      H4399   1.110   1_565  S
C4394      H4400   1.111       .  S
C4401      C4402   1.402       .  A
C4401      C4406   1.399       .  A
C4401      H4408   1.082       .  S
C4402      C4403   1.415       .  A
C4403      C4404   1.416       .  A
C4403      C4410   1.505       .  S
C4404      C4405   1.409       .  A
C4404      H4409   1.084       .  S
C4405      C4406   1.417       .  A
C4406      C4407   1.511       .  S
C4407      H4411   1.111       .  S
C4407      H4412   1.108       .  S
C4407      H4413   1.110       .  S
C4410      H4414   1.111       .  S
C4410      H4415   1.110       .  S
C4410      H4416   1.111       .  S
C4417      C4418   1.402       .  A
C4417      C4422   1.406       .  A
C4417      H4424   1.082       .  S
C4418      C4419   1.410       .  A
C4419      C4420   1.394       .  A
C4419      C4426   1.508       .  S
C4420      C4421   1.408       .  A
C4420      H4425   1.084       .  S
C4421      C4422   1.421       .  A
C4422      C4423   1.507       .  S
C4423      H4427   1.111       .  S
C4423      H4428   1.110       .  S
C4423      H4429   1.110       .  S
C4426      H4430   1.109       .  S
C4426      H4431   1.109       .  S
C4426      H4432   1.111       .  S
C4433      C4434   1.405       .  A
C4433      C4438   1.406   1_556  A
C4433      H4440   1.084       .  S
C4434      C4435   1.414       .  A
C4435      C4442   1.509       .  S
C4436      C4437   1.399       .  A
C4436      H4441   1.085       .  S
C4439      H4444   1.111       .  S
C4439      H4445   1.109       .  S
C4442      H4446   1.107       .  S
C4442      H4447   1.109       .  S
C4449      C4450   1.403       .  A
C4449      C4454   1.401       .  A
C4449      H4456   1.085   1_556  S
C4450      C4451   1.412       .  A
C4451      C4452   1.403       .  A
C4451      C4458   1.508       .  S
C4452      C4453   1.404       .  A
C4452      H4457   1.084       .  S
C4453      C4454   1.414       .  A
C4454      C4455   1.510       .  S
C4455      H4459   1.111       .  S
C4455      H4460   1.111       .  S
C4455      H4461   1.109       .  S
C4458      H4462   1.110       .  S
C4458      H4463   1.109       .  S
C4458      H4464   1.111       .  S
C4465      C4466   1.402       .  A
C4465      C4470   1.407       .  A
C4465      H4472   1.084       .  S
C4466      C4467   1.425       .  A
C4467      C4468   1.406       .  A
C4467      C4474   1.509       .  S
C4468      C4469   1.399       .  A
C4468      H4473   1.084       .  S
C4469      C4470   1.414       .  A
C4470      C4471   1.498       .  S
C4471      H4475   1.111       .  S
C4471      H4476   1.106       .  S
C4471      H4477   1.110       .  S
C4474      H4478   1.107       .  S
C4474      H4479   1.110       .  S
C4474      H4480   1.111       .  S
C4481      C4482   1.405       .  A
C4481      C4486   1.413       .  A
C4481      H4488   1.083       .  S
C4482      C4483   1.417       .  A
C4483      C4484   1.401       .  A
C4483      C4490   1.509       .  S
C4484      C4485   1.402       .  A
C4484      H4489   1.083       .  S
C4485      C4486   1.418       .  A
C4486      C4487   1.506       .  S
C4487      H4491   1.111       .  S
C4487      H4492   1.110       .  S
C4487      H4493   1.111       .  S
C4490      H4494   1.107       .  S
C4490      H4495   1.108       .  S
C4490      H4496   1.111       .  S
C4497      C4498   1.409       .  A
C4497      C4502   1.415   1_545  A
C4497      H4504   1.084       .  S
C4498      C4499   1.417       .  A
C4499      C4500   1.404   1_545  A
C4499      C4506   1.509       .  S
C4500      C4501   1.401       .  A
C4500      H4505   1.085       .  S
C4501      C4502   1.413       .  A
C4502      C4503   1.505       .  S
C4503      H4507   1.111       .  S
C4503      H4508   1.110       .  S
C4503      H4509   1.111       .  S
C4506      H4510   1.111       .  S
C4506      H4511   1.109       .  S
C4506      H4512   1.111   1_545  S
C4513      C4514   1.401   1_554  A
C4513      H4520   1.084   1_554  S
C4515      C4516   1.396       .  A
C4516      C4517   1.406       .  A
C4516      H4521   1.084       .  S
C4517      C4518   1.423       .  A
C4518      C4519   1.507       .  S
C4519      H4523   1.111       .  S
C4519      H4524   1.110       .  S
C4519      H4525   1.109       .  S
C4522      H4526   1.110       .  S
C4522      H4527   1.108       .  S
C4529      C4530   1.406       .  A
C4529      C4534   1.396       .  A
C4529      H4536   1.083       .  S
C4530      C4531   1.416       .  A
C4531      C4532   1.411       .  A
C4531      C4538   1.506       .  S
C4532      C4533   1.406       .  A
C4532      H4537   1.084       .  S
C4533      C4534   1.411       .  A
C4534      C4535   1.511       .  S
C4535      H4539   1.111       .  S
C4535      H4540   1.111       .  S
C4535      H4541   1.110       .  S
C4538      H4542   1.111       .  S
C4538      H4543   1.110       .  S
C4538      H4544   1.111       .  S
C4545      C4546   1.403       .  A
C4545      C4550   1.401       .  A
C4545      H4552   1.085       .  S
C4546      C4547   1.411       .  A
C4547      C4548   1.398       .  A
C4547      C4554   1.510       .  S
C4548      C4549   1.403       .  A
C4548      H4553   1.085       .  S
C4549      C4550   1.412       .  A
C4550      C4551   1.509       .  S
C4551      H4555   1.111       .  S
C4551      H4556   1.110       .  S
C4551      H4557   1.109       .  S
C4554      H4558   1.110       .  S
C4554      H4559   1.109       .  S
C4554      H4560   1.111       .  S
C4561      C4562   1.406       .  A
C4561      C4566   1.412       .  A
C4561      H4568   1.084       .  S
C4562      C4563   1.413       .  A
C4563      C4564   1.404       .  A
C4563      C4570   1.510       .  S
C4564      C4565   1.408       .  A
C4564      H4569   1.084       .  S
C4565      C4566   1.415       .  A
C4566      C4567   1.506       .  S
C4567      H4571   1.111       .  S
C4567      H4572   1.109       .  S
C4567      H4573   1.109       .  S
C4570      H4574   1.110       .  S
C4570      H4575   1.110       .  S
C4570      H4576   1.111       .  S
C4577      C4578   1.400       .  A
C4577      C4582   1.404       .  A
C4577      H4584   1.085       .  S
C4578      C4579   1.418       .  A
C4579      C4580   1.413       .  A
C4579      C4586   1.506       .  S
C4580      C4581   1.403       .  A
C4580      H4585   1.084       .  S
C4581      C4582   1.415       .  A
C4582      C4583   1.504       .  S
C4583      H4587   1.111       .  S
C4583      H4588   1.109       .  S
C4583      H4589   1.109       .  S
C4586      H4590   1.110       .  S
C4586      H4591   1.110       .  S
C4586      H4592   1.111       .  S
C4593      C4594   1.405       .  A
C4593      C4598   1.402       .  A
C4593      H4600   1.084       .  S
C4594      C4595   1.418       .  A
C4595      C4596   1.405       .  A
C4595      C4602   1.507       .  S
C4596      C4597   1.402       .  A
C4596      H4601   1.084       .  S
C4597      C4598   1.413       .  A
C4598      C4599   1.509       .  S
C4599      H4603   1.111       .  S
C4599      H4604   1.109       .  S
C4599      H4605   1.111       .  S
C4602      H4606   1.111       .  S
C4602      H4607   1.109       .  S
C4602      H4608   1.111       .  S
C4609      C4610   1.396       .  A
C4609      C4614   1.397       .  A
C4609      H4616   1.085       .  S
C4610      C4611   1.413       .  A
C4611      C4612   1.404       .  A
C4611      C4618   1.506       .  S
C4612      C4613   1.400       .  A
C4612      H4617   1.084       .  S
C4613      C4614   1.414       .  A
C4614      C4615   1.504       .  S
C4615      H4619   1.111       .  S
C4615      H4620   1.107       .  S
C4615      H4621   1.111       .  S
C4618      H4622   1.109       .  S
C4618      H4623   1.111       .  S
C4618      H4624   1.111       .  S
C4625      C4626   1.405       .  A
C4625      C4630   1.409       .  A
C4625      H4632   1.084       .  S
C4627      C4628   1.404       .  A
C4627      C4634   1.510       .  S
C4628      H4633   1.085       .  S
C4629      C4630   1.416   1_554  A
C4630      C4631   1.506   1_545  S
C4631      H4635   1.111   1_565  S
C4631      H4636   1.108       .  S
C4631      H4637   1.109       .  S
C4634      H4638   1.110       .  S
C4634      H4639   1.109       .  S
C4634      H4640   1.111       .  S
C4641      C4642   1.406       .  A
C4641      C4646   1.400       .  A
C4641      H4648   1.084       .  S
C4642      C4643   1.422       .  A
C4643      C4644   1.414       .  A
C4643      C4650   1.506       .  S
C4644      C4645   1.405       .  A
C4644      H4649   1.084       .  S
C4645      C4646   1.418       .  A
C4646      C4647   1.511       .  S
C4647      H4651   1.111       .  S
C4647      H4652   1.109       .  S
C4647      H4653   1.110       .  S
C4650      H4654   1.110       .  S
C4650      H4655   1.111       .  S
C4650      H4656   1.111       .  S
C4657      C4662   1.413   1_554  A
C4657      H4664   1.084   1_554  S
C4658      C4659   1.418       .  A
C4659      C4660   1.396       .  A
C4659      C4666   1.512       .  S
C4660      C4661   1.401       .  A
C4660      H4665   1.082       .  S
C4662      C4663   1.505       .  S
C4663      H4667   1.111       .  S
C4663      H4668   1.110       .  S
C4663      H4669   1.111       .  S
C4666      H4670   1.107       .  S
C4666      H4671   1.109       .  S
C4666      H4672   1.111       .  S
C4673      C4674   1.407       .  A
C4673      C4678   1.408       .  A
C4673      H4680   1.084       .  S
C4674      C4675   1.416       .  A
C4675      C4676   1.399       .  A
C4675      C4682   1.506       .  S
C4676      C4677   1.402       .  A
C4676      H4681   1.085       .  S
C4677      C4678   1.413       .  A
C4678      C4679   1.507       .  S
C4679      H4683   1.111       .  S
C4679      H4684   1.109       .  S
C4679      H4685   1.110       .  S
C4682      H4686   1.111       .  S
C4682      H4687   1.106       .  S
C4682      H4688   1.111       .  S
C4689      C4690   1.397       .  A
C4689      C4694   1.403       .  A
C4689      H4696   1.085       .  S
C4690      C4691   1.410       .  A
C4691      C4692   1.402       .  A
C4691      C4698   1.508       .  S
C4692      C4693   1.403       .  A
C4692      H4697   1.084       .  S
C4693      C4694   1.417       .  A
C4694      C4695   1.503       .  S
C4695      H4699   1.111       .  S
C4695      H4700   1.110       .  S
C4695      H4701   1.110       .  S
C4698      H4702   1.110       .  S
C4698      H4703   1.108       .  S
C4698      H4704   1.111       .  S
C4705      C4706   1.401       .  A
C4705      C4710   1.410       .  A
C4705      H4712   1.084       .  S
C4706      C4707   1.413       .  A
C4707      C4708   1.405       .  A
C4707      C4714   1.507       .  S
C4708      C4709   1.402       .  A
C4708      H4713   1.084       .  S
C4709      C4710   1.417       .  A
C4710      C4711   1.506       .  S
C4711      H4715   1.111       .  S
C4711      H4716   1.110       .  S
C4711      H4717   1.110       .  S
C4714      H4718   1.110       .  S
C4714      H4719   1.110       .  S
C4714      H4720   1.111       .  S
C4721      C4722   1.406       .  A
C4721      C4726   1.414       .  A
C4721      H4728   1.084       .  S
C4722      C4723   1.424       .  A
C4723      C4724   1.400       .  A
C4723      C4730   1.512       .  S
C4724      C4725   1.400       .  A
C4724      H4729   1.085       .  S
C4725      C4726   1.419       .  A
C4726      C4727   1.505       .  S
C4727      H4731   1.111       .  S
C4727      H4732   1.110       .  S
C4727      H4733   1.110       .  S
C4730      H4734   1.106       .  S
C4730      H4735   1.109       .  S
C4730      H4736   1.111       .  S
C4737      C4738   1.411       .  A
C4737      H4744   1.084       .  S
C4738      C4739   1.427       .  A
C4739      C4746   1.512       .  S
C4740      C4741   1.391       .  A
C4740      H4745   1.086       .  S
C4741      C4742   1.405       .  A
C4742      C4743   1.505       .  S
C4743      H4747   1.111       .  S
C4743      H4748   1.110       .  S
C4743      H4749   1.110       .  S
C4746      H4750   1.108       .  S
C4746      H4751   1.109       .  S
C4746      H4752   1.111       .  S
C4753      C4754   1.396       .  A
C4753      C4758   1.394       .  A
C4753      H4760   1.085       .  S
C4754      C4755   1.407       .  A
C4755      C4756   1.405       .  A
C4755      C4762   1.506       .  S
C4756      C4757   1.409       .  A
C4756      H4761   1.084       .  S
C4757      C4758   1.422       .  A
C4758      C4759   1.511       .  S
C4759      H4763   1.111       .  S
C4759      H4764   1.109       .  S
C4759      H4765   1.110       .  S
C4762      H4766   1.111       .  S
C4762      H4767   1.110       .  S
C4762      H4768   1.111       .  S
C4769      C4770   1.400       .  A
C4769      C4774   1.410       .  A
C4769      H4776   1.084       .  S
C4770      C4771   1.414       .  A
C4771      C4772   1.408       .  A
C4771      C4778   1.506       .  S
C4772      C4773   1.405       .  A
C4772      H4777   1.084       .  S
C4773      C4774   1.425       .  A
C4774      C4775   1.508       .  S
C4775      H4779   1.111       .  S
C4775      H4780   1.107       .  S
C4775      H4781   1.110       .  S
C4778      H4782   1.109       .  S
C4778      H4783   1.109       .  S
C4778      H4784   1.111       .  S
C4785      C4786   1.407       .  A
C4785      C4790   1.410       .  A
C4785      H4792   1.084       .  S
C4786      C4787   1.413       .  A
C4787      C4788   1.393       .  A
C4787      C4794   1.508       .  S
C4788      C4789   1.399       .  A
C4788      H4793   1.080       .  S
C4789      C4790   1.414       .  A
C4790      C4791   1.507       .  S
C4791      H4795   1.111       .  S
C4791      H4796   1.110       .  S
C4791      H4797   1.110       .  S
C4794      H4798   1.110       .  S
C4794      H4799   1.110       .  S
C4794      H4800   1.111       .  S
C4801      C4802   1.406       .  A
C4801      H4808   1.083       .  S
C4802      C4803   1.422       .  A
C4803      C4810   1.512       .  S
C4804      C4805   1.396       .  A
C4804      H4809   1.085       .  S
C4805      C4806   1.409   1_556  A
C4806      C4807   1.505   1_554  S
C4807      H4812   1.109       .  S
C4807      H4813   1.110       .  S
C4810      H4814   1.108       .  S
C4810      H4815   1.109       .  S
C4810      H4816   1.111       .  S
C4817      C4818   1.405       .  A
C4817      C4822   1.409       .  A
C4817      H4824   1.083       .  S
C4818      C4819   1.411       .  A
C4819      C4820   1.403       .  A
C4819      C4826   1.505       .  S
C4820      C4821   1.402       .  A
C4820      H4825   1.085       .  S
C4821      C4822   1.410       .  A
C4822      C4823   1.506       .  S
C4823      H4827   1.110       .  S
C4823      H4829   1.110       .  S
C4826      H4830   1.104       .  S
C4826      H4831   1.110       .  S
C4826      H4832   1.111       .  S
C4833      C4834   1.408       .  A
C4833      C4838   1.408       .  A
C4833      H4840   1.084       .  S
C4834      C4835   1.417       .  A
C4835      C4836   1.407       .  A
C4835      C4842   1.508       .  S
C4836      C4837   1.402       .  A
C4836      H4841   1.084       .  S
C4837      C4838   1.408       .  A
C4838      C4839   1.506       .  S
C4839      H4843   1.111       .  S
C4839      H4844   1.111       .  S
C4839      H4845   1.111       .  S
C4842      H4846   1.111       .  S
C4842      H4847   1.109       .  S
C4842      H4848   1.111       .  S
C4849      C4850   1.406       .  A
C4849      C4854   1.413       .  A
C4849      H4856   1.084       .  S
C4850      C4851   1.413       .  A
C4851      C4852   1.399       .  A
C4851      C4858   1.508       .  S
C4852      C4853   1.402       .  A
C4852      H4857   1.083       .  S
C4853      C4854   1.417       .  A
C4854      C4855   1.503       .  S
C4855      H4859   1.110       .  S
C4855      H4860   1.110       .  S
C4855      H4861   1.105       .  S
C4858      H4862   1.108       .  S
C4858      H4863   1.110       .  S
C4858      H4864   1.109       .  S
C4865      C4866   1.402       .  A
C4865      C4870   1.411       .  A
C4865      H4872   1.084       .  S
C4866      C4867   1.412       .  A
C4867      C4868   1.402       .  A
C4867      C4874   1.508       .  S
C4868      C4869   1.403       .  A
C4868      H4873   1.082       .  S
C4869      C4870   1.419       .  A
C4870      C4871   1.506       .  S
C4871      H4875   1.111       .  S
C4871      H4876   1.111       .  S
C4871      H4877   1.110       .  S
C4874      H4878   1.110       .  S
C4874      H4879   1.111       .  S
C4874      H4880   1.111       .  S
C4881      C4882   1.395       .  A
C4881      C4886   1.395       .  A
C4881      H4888   1.086       .  S
C4882      C4883   1.408       .  A
C4883      C4884   1.405       .  A
C4883      C4890   1.506       .  S
C4884      C4885   1.408       .  A
C4884      H4889   1.084       .  S
C4885      C4886   1.426       .  A
C4886      C4887   1.513       .  S
C4887      H4891   1.111       .  S
C4887      H4892   1.106       .  S
C4887      H4893   1.110       .  S
C4890      H4894   1.110       .  S
C4890      H4895   1.110       .  S
C4890      H4896   1.111       .  S
C4897      C4898   1.406       .  A
C4897      C4902   1.390       .  A
C4897      H4904   1.084       .  S
C4898      C4899   1.420       .  A
C4899      C4900   1.405       .  A
C4899      C4906   1.507       .  S
C4900      C4901   1.399       .  A
C4900      H4905   1.084       .  S
C4901      C4902   1.407       .  A
C4902      C4903   1.510       .  S
C4903      H4907   1.111       .  S
C4903      H4908   1.110       .  S
C4903      H4909   1.108       .  S
C4906      H4910   1.110       .  S
C4906      H4911   1.108       .  S
C4906      H4912   1.111       .  S
C4913      C4914   1.401       .  A
C4913      C4918   1.405       .  A
C4913      H4920   1.084       .  S
C4914      C4915   1.411       .  A
C4915      C4916   1.404       .  A
C4915      C4922   1.506       .  S
C4916      C4917   1.402       .  A
C4916      H4921   1.084       .  S
C4917      C4918   1.412       .  A
C4918      C4919   1.505       .  S
C4919      H4923   1.111       .  S
C4919      H4924   1.106       .  S
C4919      H4925   1.110       .  S
C4922      H4926   1.107       .  S
C4922      H4927   1.110       .  S
C4922      H4928   1.111       .  S
C4929      C4930   1.400       .  A
C4929      C4934   1.405       .  A
C4929      H4936   1.084       .  S
C4930      C4931   1.416       .  A
C4931      C4932   1.409       .  A
C4931      C4938   1.506       .  S
C4932      C4933   1.402       .  A
C4932      H4937   1.084       .  S
C4933      C4934   1.415       .  A
C4934      C4935   1.506       .  S
C4935      H4939   1.111       .  S
C4935      H4940   1.109       .  S
C4935      H4941   1.109       .  S
C4938      H4942   1.110       .  S
C4938      H4943   1.109       .  S
C4938      H4944   1.110       .  S
C4945      C4946   1.401       .  A
C4945      C4950   1.411       .  A
C4945      H4952   1.085       .  S
C4946      C4947   1.411       .  A
C4947      C4948   1.406       .  A
C4947      C4954   1.508       .  S
C4948      C4949   1.406   1_455  A
C4948      H4953   1.078   1_455  S
C4949      C4950   1.425   1_655  A
C4950      C4951   1.508       .  S
C4951      H4955   1.111       .  S
C4951      H4956   1.107       .  S
C4951      H4957   1.110   1_455  S
C4954      H4958   1.110       .  S
C4954      H4959   1.110       .  S
C4954      H4960   1.111       .  S
C4961      C4962   1.405       .  A
C4961      C4966   1.407       .  A
C4961      H4968   1.084       .  S
C4962      C4963   1.413       .  A
C4963      C4964   1.408       .  A
C4963      C4970   1.507       .  S
C4964      C4965   1.404       .  A
C4964      H4969   1.084       .  S
C4965      C4966   1.412       .  A
C4966      C4967   1.507       .  S
C4967      H4971   1.111       .  S
C4967      H4972   1.110       .  S
C4967      H4973   1.108       .  S
C4970      H4974   1.111       .  S
C4970      H4975   1.109       .  S
C4970      H4976   1.111       .  S
C4977      C4978   1.408       .  A
C4977      C4982   1.410       .  A
C4977      H4984   1.084       .  S
C4978      C4979   1.413       .  A
C4979      C4980   1.400       .  A
C4979      C4986   1.509       .  S
C4980      C4981   1.403       .  A
C4980      H4985   1.085       .  S
C4981      C4982   1.411       .  A
C4982      C4983   1.505       .  S
C4983      H4987   1.111       .  S
C4983      H4988   1.111       .  S
C4983      H4989   1.110       .  S
C4986      H4990   1.108       .  S
C4986      H4991   1.110       .  S
C4986      H4992   1.111       .  S
C4993      C4994   1.404       .  A
C4993      C4998   1.411       .  A
C4993      H5000   1.084       .  S
C4994      C4995   1.413       .  A
C4995      C4996   1.401       .  A
C4995      C5002   1.507       .  S
C4996      C4997   1.401       .  A
C4996      H5001   1.083       .  S
C4997      C4998   1.413       .  A
C4998      C4999   1.505       .  S
C4999      H5003   1.111       .  S
C4999      H5004   1.110       .  S
C4999      H5005   1.111       .  S
C5002      H5006   1.110       .  S
C5002      H5007   1.107       .  S
C5002      H5008   1.111       .  S
C5009      C5010   1.395       .  A
C5009      C5014   1.396       .  A
C5009      H5016   1.085       .  S
C5010      C5011   1.408       .  A
C5011      C5012   1.406       .  A
C5011      C5018   1.506       .  S
C5012      C5013   1.410       .  A
C5012      H5017   1.084       .  S
C5013      C5014   1.425       .  A
C5014      C5015   1.512       .  S
C5015      H5019   1.111       .  S
C5015      H5020   1.108       .  S
C5015      H5021   1.110       .  S
C5018      H5022   1.110       .  S
C5018      H5023   1.110       .  S
C5018      H5024   1.111       .  S
C5025      C5026   1.406       .  A
C5025      C5030   1.392       .  A
C5025      H5032   1.084       .  S
C5026      C5027   1.421       .  A
C5027      C5028   1.408       .  A
C5027      C5034   1.507       .  S
C5028      C5029   1.401       .  A
C5028      H5033   1.084       .  S
C5029      C5030   1.410       .  A
C5030      C5031   1.509       .  S
C5031      H5035   1.111       .  S
C5031      H5036   1.111       .  S
C5031      H5037   1.108       .  S
C5034      H5038   1.110       .  S
C5034      H5039   1.109       .  S
C5034      H5040   1.111       .  S
