geometry optimzed in LAMMPS
_audit_creation_date              2020-12-01 
_audit_creation_method            'lammps2cif' 
_symmetry_space_group_name_H-M    'P1' 
_symmetry_Int_Tables_number       1 
_symmetry_cell_setting            triclinic 
loop_ 
_symmetry_equiv_pos_as_xyz 
  x,y,z 
_cell_length_a                    25.4641034 
_cell_length_b                    25.69097937504677 
_cell_length_c                    36.36438634059293 
_cell_angle_alpha                 89.53522679333284 
_cell_angle_beta                  88.7093287518684 
_cell_angle_gamma                 89.60588482096112 
loop_ 
_atom_site_label 
_atom_site_type_symbol 
_atom_site_fract_x 
_atom_site_fract_y 
_atom_site_fract_z 
_atom_site_charge 
O1          O  0.26626490  0.24859062  0.41872457    -0.82300
C2          C  0.12785830  0.39988090  0.36459777     0.97100
O3          O  0.11592160  0.35274963  0.36977892    -0.71400
O4          O  0.19525495  0.31095034  0.33379463    -0.75000
Al5        Al  0.16405427  0.29662534  0.37994765     1.49000
C6          C  0.24186296  0.29824696  0.32550668     0.92300
O7          O  0.29601099  0.38248093  0.38104772    -0.81200
O8          O  0.21821542  0.36392069  0.47375093    -0.74800
Al9        Al  0.27769486  0.31718213  0.40037320     1.90100
O10         O  0.24925355  0.43215611  0.41811470    -0.73800
O11         O  0.12266521  0.35801330  0.44570706    -0.73700
O12         O  0.15909052  0.42105224  0.38633065    -0.79300
O13         O  0.13023043  0.27869820  0.42410712    -0.77600
O14         O  0.21048821  0.33433510  0.40342483    -1.13700
O15         O  0.20068874  0.23172597  0.38313188    -0.72900
C16         C  0.23923656  0.21624585  0.40149808     0.97800
C17         C  0.28503177  0.42670786  0.39375454     0.94200
Al18       Al  0.18872159  0.38946281  0.42915551     1.55600
O19         O  0.27617035  0.29429945  0.35008089    -0.77500
C20         C  0.10782540  0.31086511  0.44519606     0.98400
C21         C  0.26520185  0.34877236  0.47775083     0.93300
O22         O  0.29318828  0.33657358  0.44988938    -0.82800
O23         O  0.23897389  0.20618016  0.04887934    -0.82300
C24         C  0.39831475  0.13399776  0.13869124     0.97100
O25         O  0.36636534  0.11512014  0.11663441    -0.71400
O26         O  0.27607766  0.10743606  0.08566573    -0.75000
Al27       Al  0.33894494  0.14676941  0.07347652     1.49000
C28         C  0.23872279  0.11699065  0.10829898     0.92300
O29         O  0.25385763  0.24918677  0.14915380    -0.81200
O30         O  0.33387876  0.30588724  0.11890900    -0.74800
Al31       Al  0.25348124  0.22575056  0.09869697     1.90100
O32         O  0.33217286  0.22602075  0.16775833    -0.73800
O33         O  0.40359481  0.25479197  0.07967457    -0.73700
O34         O  0.41196941  0.18083135  0.13449113    -0.79300
O35         O  0.40635909  0.17583543  0.05657440    -0.77600
O36         O  0.31944425  0.20371441  0.09795648    -1.13700
O37         O  0.31167416  0.17054080  0.02778052    -0.72900
C38         C  0.26617808  0.18833172  0.02218926     0.97800
C39         C  0.28615534  0.24198446  0.17479732     0.94200
Al40       Al  0.36681109  0.23889117  0.12276381     1.55600
O41         O  0.22873029  0.16283388  0.11808003    -0.77500
C42         C  0.42316004  0.22242765  0.05741623     0.98400
C43         C  0.29749287  0.32343652  0.09930101     0.93300
O44         O  0.27157014  0.29266975  0.07999169    -0.82800
O45         O  0.45311284  0.04776268  0.30476712    -0.82300
C46         C  0.37921087  0.87909659  0.38626463     0.97100
O47         O  0.36092274  0.91337608  0.36509797    -0.71400
O48         O  0.35368922  0.00630448  0.33704416    -0.75000
Al49       Al  0.39509566  0.94530881  0.32378720     1.49000
C50         C  0.36094637  0.04058751  0.36125734     0.92300
O51         O  0.49154016  0.02030629  0.40483522    -0.81200
O52         O  0.55243979  0.94576717  0.37279081    -0.74800
Al53       Al  0.47087255  0.02699471  0.35416651     1.90100
O54         O  0.46857164  0.94041111  0.41980863    -0.73800
O55         O  0.50496989  0.88114972  0.32963988    -0.73700
O56         O  0.42678183  0.86574972  0.38228992    -0.79300
O57         O  0.42646785  0.88025085  0.30547969    -0.77600
O58         O  0.45040151  0.96178137  0.35023374    -1.13700
O59         O  0.42182376  0.97760558  0.27988222    -0.72900
C60         C  0.43765702  0.02398605  0.27666679     0.97800
C61         C  0.48306040  0.98512355  0.42892442     0.94200
Al62       Al  0.48532557  0.91205534  0.37380277     1.55600
O63         O  0.40596231  0.04824858  0.37342050    -0.77500
C64         C  0.47370214  0.86357644  0.30660402     0.98400
C65         C  0.57031126  0.98417374  0.35478448     0.93300
O66         O  0.53979244  0.01200071  0.33595922    -0.82800
O67         O  0.48754428  0.00964331  0.67411254    -0.82300
C68         C  0.63873509  0.14563411  0.61504868     0.97100
O69         O  0.59036035  0.15671703  0.61840802    -0.71400
O70         O  0.54713803  0.07889934  0.58554797    -0.75000
Al71       Al  0.53330646  0.10982366  0.63109848     1.49000
C72         C  0.53255190  0.03355811  0.57829073     0.92300
O73         O  0.61904303  0.97873895  0.63162449    -0.81200
O74         O  0.60205397  0.05414119  0.72431974    -0.74800
Al75       Al  0.55467535  0.99687122  0.65317153     1.90100
O76         O  0.67020443  0.02281437  0.66766279    -0.73800
O77         O  0.59549909  0.14916304  0.69586161    -0.73700
O78         O  0.65880655  0.11358659  0.63705989    -0.79300
O79         O  0.51574108  0.14379893  0.67463416    -0.77600
O80         O  0.57183232  0.06329508  0.65474089    -1.13700
O81         O  0.46766897  0.07321744  0.63664533    -0.72900
C82         C  0.45380667  0.03424630  0.65594242     0.97800
C83         C  0.66394921  0.98859131  0.64319564     0.94200
Al84       Al  0.62728903  0.08359225  0.67948076     1.55600
O85         O  0.52852984  0.99930015  0.60349348    -0.77500
C86         C  0.54805672  0.16495379  0.69531620     0.98400
C87         C  0.59063837  0.00688983  0.72926468     0.93300
O88         O  0.57749066  0.97941903  0.70222075    -0.82800
O89         O  0.03415893  0.01243789  0.17147330    -0.82300
C90         C  0.87792922  0.88412054  0.11502549     0.97100
O91         O  0.92557218  0.87161883  0.11797940    -0.71400
O92         O  0.96567765  0.95349888  0.08476130    -0.75000
Al93       Al  0.98227394  0.91784189  0.12838488     1.49000
C94         C  0.97890896  0.00006495  0.07882295     0.92300
O95         O  0.90016604  0.05142096  0.13977906    -0.81200
O96         O  0.91366043  0.96687650  0.22703086    -0.74800
Al97       Al  0.96512070  0.02865206  0.15601077     1.90100
O98         O  0.84689194  0.00214435  0.17278621    -0.73800
O99         O  0.92154001  0.87482783  0.19505861    -0.73700
O100        O  0.85761854  0.91466138  0.13832659    -0.79300
O101        O  0.00111607  0.88013579  0.17013879    -0.77600
O102        O  0.94563029  0.96275920  0.15572984    -1.13700
O103        O  0.04867813  0.95262482  0.13035509    -0.72900
C104        C  0.06559545  0.98878351  0.14999061     0.97800
C105        C  0.85461981  0.03969141  0.15068501     0.94200
Al106      Al  0.88942941  0.94098200  0.18142727     1.55600
O107        O  0.98680641  0.03101002  0.10502586    -0.77500
C108        C  0.96911177  0.85941465  0.19270646     0.98400
C109        C  0.93059136  0.01205738  0.23300837     0.93300
O110        O  0.94671106  0.04031824  0.20653521    -0.82800
O111        O  0.08576990  0.98253412  0.80752431    -0.82300
C112        C  0.15347415  0.14913739  0.88769774     0.97100
O113        O  0.17276379  0.11613603  0.86568011    -0.71400
O114        O  0.18041944  0.02351681  0.83703789    -0.75000
Al115      Al  0.13954114  0.08547993  0.82469910     1.49000
C116        C  0.17331107  0.98986962  0.86243759     0.92300
O117        O  0.03766549  0.00810868  0.90646725    -0.81200
O118        O  0.97979047  0.08314512  0.87356357    -0.74800
Al119      Al  0.06370798  0.00270549  0.85632041     1.90100
O120        O  0.06079287  0.08706280  0.92187873    -0.73800
O121        O  0.03017077  0.14995468  0.83201568    -0.73700
O122        O  0.10578818  0.16219012  0.88474913    -0.79300
O123        O  0.10945200  0.15117935  0.80698804    -0.77600
O124        O  0.08350646  0.06823249  0.85203435    -1.13700
O125        O  0.11295655  0.05486974  0.78110108    -0.72900
C126        C  0.09973310  0.00776669  0.77898632     0.97800
C127        C  0.04459520  0.04245907  0.93064720     0.94200
Al128      Al  0.04714891  0.11698836  0.87583985     1.55600
O129        O  0.12813629  0.98251461  0.87621324    -0.77500
C130        C  0.06223310  0.16780801  0.80844893     0.98400
C131        C  0.96386013  0.04558640  0.85456845     0.93300
O132        O  0.99653673  0.01733964  0.83719577    -0.82800
O133        O  0.76173104  0.28496600  0.41907639    -0.82300
C134        C  0.89682632  0.12706036  0.36726526     0.97100
O135        O  0.90826063  0.17483483  0.36726242    -0.71400
O136        O  0.82893502  0.21580678  0.33289418    -0.75000
Al137      Al  0.86164069  0.23294522  0.37698030     1.49000
C138        C  0.78295888  0.23074242  0.32612543     0.92300
O139        O  0.72896446  0.15194613  0.38499735    -0.81200
O140        O  0.80479949  0.17303929  0.47575502    -0.74800
Al141      Al  0.74792678  0.21683151  0.40255510     1.90100
O142        O  0.77379612  0.10239514  0.42271499    -0.73800
O143        O  0.90054700  0.17710339  0.44644147    -0.73700
O144        O  0.86544915  0.10963631  0.39142769    -0.79300
O145        O  0.89716842  0.25319238  0.41846982    -0.77600
O146        O  0.81479196  0.19821727  0.40416292    -1.13700
O147        O  0.82571610  0.29934338  0.37920111    -0.72900
C148        C  0.78774447  0.31615618  0.39890323     0.97800
C149        C  0.73917671  0.10789692  0.39838590     0.94200
Al150      Al  0.83493521  0.14480949  0.43204486     1.55600
O151        O  0.74981676  0.23893137  0.35190144    -0.77500
C152        C  0.91641505  0.22371738  0.44250620     0.98400
C153        C  0.75727982  0.18597502  0.48025783     0.93300
O154        O  0.73029499  0.19825615  0.45268565    -0.82800
O155        O  0.79780250  0.32660093  0.05247424    -0.82300
C156        C  0.62930656  0.40196270  0.13687208     0.97100
O157        O  0.66224630  0.41944006  0.11369946    -0.71400
O158        O  0.75520034  0.42547666  0.08441844    -0.75000
Al159      Al  0.69425567  0.38494080  0.07277450     1.49000
C160        C  0.78964611  0.41795264  0.10853955     0.92300
O161        O  0.77343914  0.28693005  0.15332121    -0.81200
O162        O  0.69630294  0.22929092  0.12479494    -0.74800
Al163      Al  0.77795477  0.30882234  0.10253301     1.90100
O164        O  0.69425701  0.31191842  0.17119444    -0.73800
O165        O  0.62883324  0.27766135  0.08392627    -0.73700
O166        O  0.61676566  0.35469068  0.13544092    -0.79300
O167        O  0.62916324  0.35411656  0.05614232    -0.77600
O168        O  0.71185905  0.33007224  0.10017115    -1.13700
O169        O  0.72636194  0.35842003  0.02866240    -0.72900
C170        C  0.77293485  0.34177546  0.02460949     0.97800
C171        C  0.73953189  0.29545780  0.17862839     0.94200
Al172      Al  0.66279279  0.29630080  0.12631978     1.55600
O173        O  0.79957390  0.37290501  0.12031413    -0.77500
C174        C  0.61210634  0.30780578  0.05934254     0.98400
C175        C  0.73389903  0.21104165  0.10560084     0.93300
O176        O  0.76183659  0.24111350  0.08582086    -0.82800
O177        O  0.73371012  0.70048864  0.54978428    -0.82300
C178        C  0.89767717  0.62724641  0.63504099     0.97100
O179        O  0.86627204  0.60893358  0.61232874    -0.71400
O180        O  0.77517322  0.60029999  0.58175032    -0.75000
Al181      Al  0.83666022  0.64311883  0.57062882     1.49000
C182        C  0.73756297  0.60706908  0.60477496     0.92300
O183        O  0.74971846  0.73594349  0.65117096    -0.81200
O184        O  0.82659663  0.79734097  0.62308557    -0.74800
Al185      Al  0.74888458  0.71665676  0.60000400     1.90100
O186        O  0.82870277  0.71284369  0.66818867    -0.73800
O187        O  0.89714819  0.75295386  0.58146920    -0.73700
O188        O  0.90984453  0.67460253  0.63221616    -0.79300
O189        O  0.90283212  0.67675035  0.55434336    -0.77600
O190        O  0.81554411  0.69705894  0.59764838    -1.13700
O191        O  0.80717516  0.66951409  0.52622774    -0.72900
C192        C  0.76069539  0.68583679  0.52208688     0.97800
C193        C  0.78272231  0.72790413  0.67622335     0.94200
Al194      Al  0.86198285  0.73150307  0.62373928     1.55600
O195        O  0.72701046  0.65162128  0.61694733    -0.77500
C196        C  0.91757889  0.72394094  0.55741661     0.98400
C197        C  0.78973231  0.81558273  0.60429509     0.93300
O198        O  0.76409936  0.78575928  0.58400745    -0.82800
O199        O  0.77142423  0.74335310  0.91913785    -0.82300
C200        C  0.63254357  0.89568726  0.86526634     0.97100
O201        O  0.62113604  0.84815604  0.86913715    -0.71400
O202        O  0.70119717  0.80688310  0.83423584    -0.75000
Al203      Al  0.66944430  0.79193916  0.87978782     1.49000
C204        C  0.74740188  0.79292665  0.82591427     0.92300
O205        O  0.80183353  0.87717728  0.88119815    -0.81200
O206        O  0.72310175  0.86013837  0.97346075    -0.74800
Al207      Al  0.78318296  0.81213167  0.90085353     1.90100
O208        O  0.75437782  0.92745613  0.91741323    -0.73800
O209        O  0.62824108  0.85253148  0.94598603    -0.73700
O210        O  0.66426281  0.91571563  0.88699040    -0.79300
O211        O  0.63494757  0.77352340  0.92359511    -0.77600
O212        O  0.71580582  0.82940253  0.90359402    -1.13700
O213        O  0.70646252  0.72708923  0.88290207    -0.72900
C214        C  0.74569442  0.71142219  0.90048615     0.97800
C215        C  0.79063798  0.92163665  0.89337259     0.94200
Al216      Al  0.69392201  0.88453367  0.92909792     1.55600
O217        O  0.78180439  0.78876773  0.85045075    -0.77500
C218        C  0.61334965  0.80536613  0.94531458     0.98400
C219        C  0.77041787  0.84730570  0.97799100     0.93300
O220        O  0.79861451  0.83261844  0.95071038    -0.82800
O221        O  0.57358189  0.48924358  0.29883140    -0.82300
C222        C  0.64986742  0.64681243  0.38688696     0.97100
O223        O  0.66725765  0.61574359  0.36299057    -0.71400
O224        O  0.67272407  0.52553589  0.33196772    -0.75000
Al225      Al  0.63263224  0.58854273  0.32159059     1.49000
C226        C  0.66368853  0.48896561  0.35491539     0.92300
O227        O  0.53052659  0.50526402  0.40000496    -0.81200
O228        O  0.47442014  0.58518252  0.37347937    -0.74800
Al229      Al  0.55424171  0.50494108  0.34909303     1.90100
O230        O  0.55800295  0.58095859  0.41933496    -0.73800
O231        O  0.52477132  0.65486619  0.33496072    -0.73700
O232        O  0.60210278  0.66014477  0.38621031    -0.79300
O233        O  0.60183582  0.65539670  0.30631199    -0.77600
O234        O  0.57671150  0.56996409  0.34851107    -1.13700
O235        O  0.60631598  0.56177798  0.27707142    -0.72900
C236        C  0.59011082  0.51626941  0.27182274     0.97800
C237        C  0.54047704  0.53613613  0.42592270     0.94200
Al238      Al  0.54273658  0.61678365  0.37595688     1.55600
O239        O  0.61776551  0.47992775  0.36656429    -0.77500
C240        C  0.55480167  0.67231046  0.31001875     0.98400
C241        C  0.45638129  0.55092813  0.35250335     0.93300
O242        O  0.48732814  0.52486373  0.33216534    -0.82800
O243        O  0.52787906  0.51286669  0.66603033    -0.82300
C244        C  0.37079078  0.38056435  0.61538634     0.97100
O245        O  0.41878033  0.36800298  0.61682309    -0.71400
O246        O  0.46047307  0.44666028  0.58151012    -0.75000
Al247      Al  0.47666218  0.41389890  0.62617415     1.49000
C248        C  0.47460854  0.49240820  0.57399205     0.92300
O249        O  0.39303120  0.54612517  0.63168306    -0.81200
O250        O  0.41170706  0.46965359  0.72368136    -0.74800
Al251      Al  0.45869855  0.52667562  0.64960735     1.90100
O252        O  0.34206063  0.50104964  0.66920376    -0.73800
O253        O  0.41753403  0.37506732  0.69534640    -0.73700
O254        O  0.35196601  0.41127383  0.63898158    -0.79300
O255        O  0.49581333  0.37813902  0.66863108    -0.77600
O256        O  0.44038929  0.46045752  0.65227938    -1.13700
O257        O  0.54340358  0.44893603  0.62784034    -0.72900
C258        C  0.55989435  0.48646093  0.64659407     0.97800
C259        C  0.34788001  0.53478450  0.64383464     0.94200
Al260      Al  0.38527825  0.44049523  0.67984856     1.55600
O261        O  0.48172531  0.52523581  0.59906818    -0.77500
C262        C  0.46459738  0.35850250  0.69212998     0.98400
C263        C  0.42693556  0.51588059  0.72756739     0.93300
O264        O  0.43944824  0.54292313  0.69952840    -0.82800
O265        O  0.28212031  0.79671936  0.54471926    -0.82300
C266        C  0.14025245  0.87981162  0.65058978     0.97100
O267        O  0.14142197  0.89538102  0.61746292    -0.71400
O268        O  0.24013298  0.91583834  0.60449353    -0.75000
Al269      Al  0.19166881  0.87491706  0.57890382     1.49000
C270        C  0.28827652  0.90683324  0.60851467     0.92300
O271        O  0.28708772  0.79198980  0.64964402    -0.81200
O272        O  0.17994663  0.71487943  0.59919495    -0.74800
Al273      Al  0.28007580  0.79565495  0.59735622     1.90100
O274        O  0.21232356  0.75424828  0.66226220    -0.73800
O275        O  0.10957244  0.79028530  0.59494445    -0.73700
O276        O  0.15100655  0.83310736  0.65799280    -0.79300
O277        O  0.14058762  0.84015791  0.55041673    -0.77600
O278        O  0.21290428  0.81544490  0.60041297    -1.13700
O279        O  0.23789378  0.86902201  0.53668553    -0.72900
C280        C  0.26847644  0.83411694  0.52417285     0.97800
C281        C  0.25712652  0.76766791  0.67184012     0.94200
Al282      Al  0.16659921  0.77698361  0.62616150     1.55600
O283        O  0.30849126  0.86350203  0.60020716    -0.77500
C284        C  0.10732807  0.80789712  0.56258994     0.98400
C285        C  0.22549517  0.69549030  0.59550610     0.93300
O286        O  0.26572514  0.72382900  0.59525737    -0.82800
O287        O  0.27491834  0.78571776  0.91756856    -0.82300
C288        C  0.40607772  0.62677091  0.86568104     0.97100
O289        O  0.42135034  0.67295983  0.87008826    -0.71400
O290        O  0.34642351  0.71684425  0.83331088    -0.75000
Al291      Al  0.37514950  0.73182636  0.87861417     1.49000
C292        C  0.30067256  0.73012565  0.82471025     0.92300
O293        O  0.23765232  0.65393809  0.88242339    -0.81200
O294        O  0.31269351  0.66811258  0.97370457    -0.74800
Al295      Al  0.25959045  0.71798963  0.90051686     1.90100
O296        O  0.28069046  0.60149106  0.91906373    -0.73800
O297        O  0.40940062  0.67112028  0.94649249    -0.73700
O298        O  0.37304914  0.60804176  0.88822982    -0.79300
O299        O  0.40630963  0.74967461  0.92214944    -0.77600
O300        O  0.32548767  0.69704762  0.90327607    -1.13700
O301        O  0.34087409  0.79900678  0.87945000    -0.72900
C302        C  0.30217474  0.81646727  0.89792622     0.97800
C303        C  0.24584831  0.60913257  0.89519581     0.94200
Al304      Al  0.34297733  0.64147418  0.92993280     1.55600
O305        O  0.26555628  0.73911375  0.84928489    -0.77500
C306        C  0.42457770  0.71832594  0.94541075     0.98400
C307        C  0.26594343  0.68354229  0.97820218     0.93300
O308        O  0.24005510  0.69978867  0.95093850    -0.82800
O309        O  0.96182254  0.54261222  0.79926764    -0.82300
C310        C  0.88766596  0.37941869  0.88620863     0.97100
O311        O  0.87026421  0.41232556  0.86378542    -0.71400
O312        O  0.86423524  0.50419890  0.83491475    -0.75000
Al313      Al  0.90357573  0.44177236  0.82160084     1.49000
C314        C  0.87324530  0.53830476  0.85900395     0.92300
O315        O  0.00667377  0.51807468  0.89848603    -0.81200
O316        O  0.06336535  0.44094060  0.86656691    -0.74800
Al317      Al  0.98245436  0.52298627  0.84849964     1.90100
O318        O  0.98217753  0.44005752  0.91625483    -0.73800
O319        O  0.01131025  0.37423261  0.82718608    -0.73700
O320        O  0.93509364  0.36482829  0.88278566    -0.79300
O321        O  0.93240862  0.37537404  0.80374962    -0.77600
O322        O  0.96035677  0.45796343  0.84660119    -1.13700
O323        O  0.92915548  0.47163758  0.77659209    -0.72900
C324        C  0.94502918  0.51775011  0.77202530     0.97800
C325        C  0.99898012  0.48451749  0.92382321     0.94200
Al326      Al  0.99512599  0.40861336  0.87071884     1.55600
O327        O  0.91915030  0.54605332  0.86947458    -0.77500
C328        C  0.97903567  0.35716515  0.80462187     0.98400
C329        C  0.08071186  0.47918530  0.84793908     0.93300
O330        O  0.04972480  0.50557240  0.82848991    -0.82800
O331        O  0.98933258  0.51791226  0.16573936    -0.82300
C332        C  0.14972750  0.64925610  0.11495416     0.97100
O333        O  0.10190373  0.66196713  0.11672528    -0.71400
O334        O  0.06415015  0.58339190  0.08083409    -0.75000
Al335      Al  0.04417843  0.61524306  0.12518199     1.49000
C336        C  0.04953993  0.53824773  0.07290410     0.92300
O337        O  0.12490938  0.48110467  0.13230813    -0.81200
O338        O  0.10353735  0.55695462  0.22305941    -0.74800
Al339      Al  0.05890276  0.50226283  0.14948911     1.90100
O340        O  0.17508981  0.52663255  0.16817190    -0.73800
O341        O  0.09749084  0.65171133  0.19501548    -0.73700
O342        O  0.16727847  0.61753577  0.13819472    -0.79300
O343        O  0.02158735  0.64908942  0.16725860    -0.77600
O344        O  0.07829572  0.56797084  0.15165561    -1.13700
O345        O  0.97767636  0.58086525  0.12600346    -0.72900
C346        C  0.95925038  0.54429469  0.14553856     0.97800
C347        C  0.16945424  0.49139372  0.14439141     0.94200
Al348      Al  0.13162530  0.58713074  0.17910917     1.55600
O349        O  0.04005459  0.50504217  0.09821573    -0.77500
C350        C  0.05011460  0.66707283  0.19180035     0.98400
C351        C  0.08842923  0.51068776  0.22746805     0.93300
O352        O  0.07470090  0.48472786  0.19985418    -0.82800
C353        C  0.01218146  0.49699395  0.96214456    -0.00600
C354        C  0.02441083  0.54866522  0.97038854    -0.12500
C355        C  0.03732640  0.56318098  0.00587940     0.01600
C356        C  0.03980404  0.52498898  0.03415412    -0.00700
C357        C  0.02861339  0.47311485  0.02575105    -0.12500
C358        C  0.01438223  0.45881252  0.99044712     0.01500
H359        H  0.02264748  0.57854411  0.94908490     0.14500
H360        H  0.03006896  0.44331184  0.04713928     0.14500
C361        C  0.00236064  0.40464321  0.98470597     0.36100
C362        C  0.04505975  0.61799705  0.01228296     0.36000
N363        N  0.99273802  0.36114379  0.98061769    -0.44200
N364        N  0.05062857  0.66205357  0.01716033    -0.44200
C365        C  0.21281637  0.56634004  0.88177426    -0.00600
C366        C  0.19937002  0.56675420  0.84442914    -0.12500
C367        C  0.15997066  0.53430742  0.83144244     0.01600
C368        C  0.13331538  0.50033215  0.85599357    -0.00700
C369        C  0.15040924  0.49640910  0.89254328    -0.12500
C370        C  0.18924183  0.52947355  0.90569367     0.01500
H371        H  0.21795856  0.59441073  0.82566939     0.14500
H372        H  0.12982740  0.47113807  0.91197098     0.14500
C373        C  0.19940430  0.52896804  0.94461901     0.36100
C374        C  0.14601011  0.53823942  0.79324558     0.36000
N375        N  0.20710103  0.52885008  0.97586736    -0.44200
N376        N  0.13464351  0.54125791  0.76266415    -0.44200
C377        C  0.24053922  0.67966768  0.01550136    -0.00600
C378        C  0.19825584  0.71281858  0.02503216    -0.12500
C379        C  0.17019986  0.70662441  0.05857554     0.01600
C380        C  0.18398459  0.66616761  0.08329007    -0.00700
C381        C  0.22799880  0.63501547  0.07451507    -0.12500
C382        C  0.25579957  0.64092233  0.04116964     0.01500
H383        H  0.18650507  0.74314563  0.00596393     0.14500
H384        H  0.23900258  0.60337481  0.09276689     0.14500
C385        C  0.29696114  0.60341578  0.03312628     0.36100
C386        C  0.12743418  0.74217774  0.06673386     0.36000
N387        N  0.32963897  0.57302517  0.02683851    -0.44200
N388        N  0.09325690  0.77078190  0.07332828    -0.44200
C389        C  0.27122415  0.75583273  0.71030716    -0.00600
C390        C  0.23023627  0.74037084  0.73469479    -0.12500
C391        C  0.23877625  0.73170375  0.77186579     0.01600
C392        C  0.28953855  0.73770570  0.78552597    -0.00700
C393        C  0.33095561  0.75205278  0.76127337    -0.12500
C394        C  0.32221449  0.76162142  0.72398168     0.01500
H395        H  0.19056326  0.73595146  0.72499551     0.14500
H396        H  0.37017808  0.75710462  0.77165097     0.14500
C397        C  0.36599557  0.77791673  0.70084369     0.36100
C398        C  0.19470820  0.71603107  0.79504918     0.36000
N399        N  0.40109965  0.79121663  0.68239071    -0.44200
N400        N  0.15936912  0.70366849  0.81361628    -0.44200
C401        C  0.23511459  0.63914483  0.59866747    -0.00600
C402        C  0.22412427  0.61655391  0.63335583    -0.12500
C403        C  0.25786716  0.57858476  0.64807546     0.01600
C404        C  0.30260287  0.56248903  0.62744642    -0.00700
C405        C  0.30771554  0.57857359  0.59044516    -0.12500
C406        C  0.27425608  0.61648736  0.57596468     0.01500
H407        H  0.19399011  0.63378519  0.65105917     0.14500
H408        H  0.34047947  0.56452732  0.57361883     0.14500
C409        C  0.28489978  0.63659465  0.53935637     0.36100
C410        C  0.24924897  0.56169401  0.68565626     0.36000
N411        N  0.29325678  0.65298491  0.51008577    -0.44200
N412        N  0.24255988  0.54801019  0.71578361    -0.44200
C413        C  0.42206878  0.59597597  0.83242413    -0.00600
C414        C  0.40721525  0.54331073  0.83066398    -0.12500
C415        C  0.41031581  0.51546314  0.79755235     0.01600
C416        C  0.42875107  0.54026337  0.76482677    -0.00700
C417        C  0.44701530  0.59168287  0.76725688    -0.12500
C418        C  0.44375621  0.61951406  0.80022487     0.01500
H419        H  0.39083154  0.52422188  0.85498215     0.14500
H420        H  0.46224317  0.61136298  0.74282471     0.14500
C421        C  0.45992013  0.67323570  0.79899856     0.36100
C422        C  0.39242918  0.46222014  0.79811404     0.36000
N423        N  0.47271658  0.71634107  0.79757168    -0.44200
N424        N  0.37810281  0.41955147  0.79870916    -0.44200
C425        C  0.52604667  0.52241851  0.46390620    -0.00600
C426        C  0.47845493  0.49639755  0.47043620    -0.12500
C427        C  0.45946812  0.48836474  0.50627326     0.01600
C428        C  0.48888283  0.50568794  0.53602658    -0.00700
C429        C  0.53622569  0.53193187  0.52955574    -0.12500
C430        C  0.55500413  0.54047888  0.49380375     0.01500
H431        H  0.45501865  0.48428686  0.44751430     0.14500
H432        H  0.55928972  0.54459205  0.55252143     0.14500
C433        C  0.60462685  0.56664440  0.48874000     0.36100
C434        C  0.40832919  0.46547113  0.51180645     0.36000
N435        N  0.64447080  0.58755376  0.48497548    -0.44200
N436        N  0.36692913  0.44802875  0.51628043    -0.44200
C437        C  0.46808967  0.73840482  0.96756799    -0.00600
C438        C  0.47155613  0.79298850  0.97019846    -0.12500
C439        C  0.52031867  0.81758303  0.96816645     0.01600
C440        C  0.56628094  0.78684884  0.96593795    -0.00700
C441        C  0.56241758  0.73295379  0.97316270    -0.12500
C442        C  0.51342766  0.70837575  0.97391956     0.01500
H443        H  0.43632575  0.81661138  0.96748073     0.14500
H444        H  0.59779268  0.70918152  0.97343444     0.14500
C445        C  0.51152883  0.65237696  0.97688629     0.36100
C446        C  0.52114855  0.87312729  0.96171616     0.36000
N447        N  0.51012396  0.60750009  0.97968876    -0.44200
N448        N  0.52158047  0.91753738  0.95613055    -0.44200
C449        C  0.76650619  0.65793470  0.89425997    -0.00600
C450        C  0.80269041  0.63726336  0.91900314    -0.12500
C451        C  0.83428152  0.59450228  0.90944343     0.01600
C452        C  0.83104690  0.57246457  0.87400249    -0.00700
C453        C  0.79091341  0.58905581  0.85096808    -0.12500
C454        C  0.75848720  0.63122011  0.86073655     0.01500
H455        H  0.80813767  0.65610332  0.94523876     0.14500
H456        H  0.78737223  0.57166030  0.82404100     0.14500
C457        C  0.72092403  0.64859920  0.83402200     0.36100
C458        C  0.87011384  0.57453833  0.93645338     0.36000
N459        N  0.69097601  0.66224717  0.81243378    -0.44200
N460        N  0.89821326  0.55852444  0.95846484    -0.44200
C461        C  0.96375311  0.74563261  0.53728251    -0.00600
C462        C  0.00830539  0.71390972  0.53282565    -0.12500
C463        C  0.05845970  0.73582785  0.53397321     0.01600
C464        C  0.06383270  0.78968988  0.54023371    -0.00700
C465        C  0.01995259  0.82213572  0.53688288    -0.12500
C466        C  0.96984899  0.80047494  0.53456998     0.01500
H467        H  0.00433877  0.67192785  0.53329267     0.14500
H468        H  0.02397585  0.86375706  0.54056298     0.14500
C469        C  0.92502099  0.83532544  0.53438916     0.36100
C470        C  0.10375632  0.70184076  0.53204915     0.36000
N471        N  0.88918252  0.86328434  0.53438424    -0.44200
N472        N  0.13983298  0.67432986  0.52979337    -0.44200
C473        C  0.94045132  0.54358336  0.73487814    -0.00600
C474        C  0.91142965  0.51874965  0.70761151    -0.12500
C475        C  0.89974708  0.54357898  0.67412097     0.01600
C476        C  0.91706912  0.59507197  0.66683678    -0.00700
C477        C  0.94878587  0.61871205  0.69316426    -0.12500
C478        C  0.96071076  0.59371819  0.72659918     0.01500
H479        H  0.89596343  0.48013377  0.71289069     0.14500
H480        H  0.96315200  0.65783317  0.68823571     0.14500
C481        C  0.99356808  0.62101744  0.75181370     0.36100
C482        C  0.86827449  0.51542302  0.64849962     0.36000
N483        N  0.02009021  0.64288869  0.77190603    -0.44200
N484        N  0.84305196  0.49281704  0.62799074    -0.44200
C485        C  0.75884283  0.77724870  0.78764051    -0.00600
C486        C  0.72335301  0.79293340  0.76060230    -0.12500
C487        C  0.72836427  0.77530582  0.72457436     0.01600
C488        C  0.77016679  0.74131419  0.71479586    -0.00700
C489        C  0.80522394  0.72495622  0.74196543    -0.12500
C490        C  0.80010307  0.74252010  0.77806125     0.01500
H491        H  0.69117473  0.81921771  0.76761459     0.14500
H492        H  0.83741335  0.69869327  0.73492796     0.14500
C493        C  0.83706748  0.72294525  0.80449074     0.36100
C494        C  0.69078256  0.79435775  0.69838769     0.36000
N495        N  0.86682006  0.70704727  0.82547564    -0.44200
N496        N  0.66058523  0.80972554  0.67752880    -0.44200
C497        C  0.61477577  0.50479534  0.64069570    -0.00600
C498        C  0.63945640  0.49658503  0.60604809    -0.12500
C499        C  0.68329809  0.52594400  0.59452462     0.01600
C500        C  0.70314855  0.56413124  0.61799278    -0.00700
C501        C  0.68258366  0.56745243  0.65415524    -0.12500
C502        C  0.63891292  0.53833238  0.66564206     0.01500
H503        H  0.62189606  0.47044406  0.58660858     0.14500
H504        H  0.69874513  0.59548187  0.67291987     0.14500
C505        C  0.61839465  0.54546667  0.70261969     0.36100
C506        C  0.70398899  0.51927177  0.55756717     0.36000
N507        N  0.60206784  0.55123506  0.73227650    -0.44200
N508        N  0.72071267  0.51360674  0.52800134    -0.44200
C509        C  0.73634069  0.68435850  0.48482996    -0.00600
C510        C  0.75974046  0.65311388  0.45730768    -0.12500
C511        C  0.73424832  0.64284734  0.42423932     0.01600
C512        C  0.68392505  0.66471110  0.41753389    -0.00700
C513        C  0.66258485  0.69936607  0.44378386    -0.12500
C514        C  0.68782916  0.70912192  0.47701860     0.01500
H515        H  0.79704116  0.63404799  0.46240044     0.14500
H516        H  0.62450348  0.71715640  0.43924432     0.14500
C517        C  0.66176350  0.74355333  0.50289266     0.36100
C518        C  0.75977010  0.60706843  0.39901617     0.36000
N519        N  0.64059196  0.77102961  0.52357431    -0.44200
N520        N  0.78035929  0.57820990  0.37901231    -0.44200
C521        C  0.60960560  0.43588688  0.16771154    -0.00600
C522        C  0.63541284  0.48329636  0.17355939    -0.12500
C523        C  0.62803333  0.51135110  0.20624912     0.01600
C524        C  0.59299429  0.49290124  0.23417689    -0.00700
C525        C  0.56393901  0.44776787  0.22711253    -0.12500
C526        C  0.57198413  0.41919538  0.19458136     0.01500
H527        H  0.66449096  0.49701391  0.15354268     0.14500
H528        H  0.53632064  0.43329317  0.24786789     0.14500
C529        C  0.54275558  0.37167141  0.19064984     0.36100
C530        C  0.66062252  0.55641505  0.21129469     0.36000
N531        N  0.51944134  0.33346767  0.18771116    -0.44200
N532        N  0.68706569  0.59229265  0.21531865    -0.44200
C533        C  0.82126452  0.46127305  0.12231123    -0.00600
C534        C  0.83693412  0.50111700  0.09805722    -0.12500
C535        C  0.87836253  0.53404365  0.10684241     0.01600
C536        C  0.90466904  0.52672692  0.14055147    -0.00700
C537        C  0.88334191  0.49228981  0.16679907    -0.12500
C538        C  0.84201333  0.45970325  0.15805635     0.01500
H539        H  0.81997470  0.50372303  0.07098872     0.14500
H540        H  0.90168210  0.48785295  0.19330805     0.14500
C541        C  0.82379688  0.42333657  0.18588434     0.36100
C542        C  0.89563376  0.57127400  0.07921746     0.36000
N543        N  0.81007621  0.39451273  0.20865574    -0.44200
N544        N  0.90910623  0.60106580  0.05695657    -0.44200
C545        C  0.79950712  0.34326686  0.98717099    -0.00600
C546        C  0.77612247  0.37237493  0.95891598    -0.12500
C547        C  0.80222791  0.38159876  0.92503353     0.01600
C548        C  0.85369579  0.36152938  0.91830391    -0.00700
C549        C  0.87536146  0.32898800  0.94545096    -0.12500
C550        C  0.84910889  0.31974824  0.97941218     0.01500
H551        H  0.73780539  0.39004184  0.96373961     0.14500
H552        H  0.91403284  0.31208270  0.94076110     0.14500
C553        C  0.87468164  0.28639795  0.00577508     0.36100
C554        C  0.77532358  0.41355049  0.89843807     0.36000
N555        N  0.89526738  0.25958836  0.02682354    -0.44200
N556        N  0.75369339  0.43920212  0.87720357    -0.44200
C557        C  0.76784896  0.36999427  0.39303423    -0.00600
C558        C  0.77857380  0.39440749  0.35880353    -0.12500
C559        C  0.74791230  0.43641382  0.34653704     0.01600
C560        C  0.70588266  0.45468627  0.36884753    -0.00700
C561        C  0.69950456  0.43449145  0.40472855    -0.12500
C562        C  0.72995944  0.39267405  0.41699526     0.01500
H563        H  0.80789767  0.37792361  0.34011288     0.14500
H564        H  0.66851134  0.44969128  0.42268803     0.14500
C565        C  0.71948302  0.37233947  0.45357675     0.36100
C566        C  0.75747016  0.45672215  0.30988088     0.36000
N567        N  0.71092972  0.35606961  0.48286025    -0.44200
N568        N  0.76524315  0.47312917  0.28054203    -0.44200
C569        C  0.75122469  0.28063079  0.21663912    -0.00600
C570        C  0.78104450  0.23525034  0.22234736    -0.12500
C571        C  0.79009753  0.21682685  0.25783490     0.01600
C572        C  0.76962389  0.24446438  0.28828166    -0.00700
C573        C  0.73952800  0.28960440  0.28261128    -0.12500
C574        C  0.73011672  0.30783414  0.24714619     0.01500
H575        H  0.79609797  0.21328645  0.19899819     0.14500
H576        H  0.72469937  0.31166393  0.30598934     0.14500
C577        C  0.70113374  0.35589506  0.24311193     0.36100
C578        C  0.81841410  0.16840917  0.26214784     0.36000
N579        N  0.67847954  0.39482966  0.24033787    -0.44200
N580        N  0.84066551  0.12931815  0.26541779    -0.44200
C581        C  0.04348485  0.21248730  0.78615855    -0.00600
C582        C  0.98873800  0.21771032  0.78197212    -0.12500
C583        C  0.96502334  0.26702603  0.78067459     0.01600
C584        C  0.99680020  0.31141692  0.78301123    -0.00700
C585        C  0.05146473  0.30554276  0.77727238    -0.12500
C586        C  0.07524901  0.25635759  0.77951547     0.01500
H587        H  0.96391735  0.18367803  0.78494365     0.14500
H588        H  0.07623221  0.33977613  0.77703012     0.14500
C589        C  0.13180378  0.25336843  0.78081749     0.36100
C590        C  0.90842584  0.27061133  0.78248791     0.36000
N591        N  0.17714381  0.25110918  0.78196665    -0.44200
N592        N  0.86303833  0.27335264  0.78380899    -0.44200
C593        C  0.82279976  0.96584968  0.87965397    -0.00600
C594        C  0.84473459  0.96252119  0.84390583    -0.12500
C595        C  0.88676433  0.99405292  0.83279012     0.01600
C596        C  0.90839246  0.02881680  0.85804202    -0.00700
C597        C  0.88117217  0.03788015  0.89155043    -0.12500
C598        C  0.83832808  0.00690771  0.90243969     0.01500
H599        H  0.83102405  0.93300199  0.82528638     0.14500
H600        H  0.89629340  0.06569911  0.91087368     0.14500
C601        C  0.81420263  0.01535828  0.93820350     0.36100
C602        C  0.90834953  0.98830811  0.79597358     0.36000
N603        N  0.79448560  0.02255986  0.96670867    -0.44200
N604        N  0.92520298  0.98381687  0.76634496    -0.44200
C605        C  0.21684681  0.95583607  0.87506648    -0.00600
C606        C  0.25565734  0.93917183  0.84972576    -0.12500
C607        C  0.28898933  0.89710022  0.85807475     0.01600
C608        C  0.28323612  0.87076290  0.89240162    -0.00700
C609        C  0.24913628  0.89193339  0.91917767    -0.12500
C610        C  0.21632546  0.93405663  0.91095792     0.01500
H611        H  0.25735883  0.95633543  0.82235531     0.14500
H612        H  0.24548154  0.87324467  0.94598807     0.14500
C613        C  0.18092275  0.95236335  0.93964329     0.36100
C614        C  0.32530266  0.87944421  0.82965997     0.36000
N615        N  0.15271856  0.96628457  0.96296925    -0.44200
N616        N  0.35451458  0.86567241  0.80685173    -0.44200
C617        C  0.13008705  0.91628353  0.68176368    -0.00600
C618        C  0.08766661  0.95183885  0.68202073    -0.12500
C619        C  0.07721377  0.98368264  0.71298600     0.01600
C620        C  0.10872577  0.97900176  0.74433763    -0.00700
C621        C  0.15173304  0.94521149  0.74335445    -0.12500
C622        C  0.16350805  0.91544396  0.71235769     0.01500
H623        H  0.06245941  0.95425021  0.65842787     0.14500
H624        H  0.17739113  0.94317252  0.76681302     0.14500
C625        C  0.21329610  0.88867870  0.71188730     0.36100
C626        C  0.03407514  0.02029449  0.71226286     0.36000
N627        N  0.25461477  0.87000720  0.71291216    -0.44200
N628        N  0.99973936  0.05001170  0.71163469    -0.44200
C629        C  0.98701530  0.81238308  0.21238647    -0.00600
C630        C  0.95286683  0.76997645  0.21474412    -0.12500
C631        C  0.97313946  0.71930796  0.21507392     0.01600
C632        C  0.02828993  0.71144535  0.21269464    -0.00700
C633        C  0.06140844  0.75350487  0.21898547    -0.12500
C634        C  0.04105362  0.80417057  0.21881379     0.01500
H635        H  0.91102902  0.77592461  0.21133323     0.14500
H636        H  0.10364409  0.74770816  0.21881204     0.14500
C637        C  0.07713398  0.84709496  0.22105354     0.36100
C638        C  0.93678238  0.67649636  0.21269539     0.36000
N639        N  0.10607166  0.88147636  0.22277653    -0.44200
N640        N  0.90770464  0.64228993  0.21044912    -0.44200
C641        C  0.79387276  0.85153305  0.01526991    -0.00600
C642        C  0.84155148  0.82576425  0.02224639    -0.12500
C643        C  0.86817676  0.83295858  0.05525845     0.01600
C644        C  0.84714309  0.86667119  0.08268624    -0.00700
C645        C  0.79802722  0.89021297  0.07646163    -0.12500
C646        C  0.77174208  0.88353970  0.04330229     0.01500
H647        H  0.85897350  0.80073629  0.00137351     0.14500
H648        H  0.78125881  0.91661802  0.09672144     0.14500
C649        C  0.72429668  0.91360714  0.03804177     0.36100
C650        C  0.91773561  0.80613939  0.05939826     0.36000
N651        N  0.68650282  0.93801259  0.03380541    -0.44200
N652        N  0.95749168  0.78463310  0.06252839    -0.44200
C653        C  0.81121859  0.07166758  0.13656524    -0.00600
C654        C  0.81607956  0.08929983  0.09998915    -0.12500
C655        C  0.78642511  0.13140075  0.08747263     0.01600
C656        C  0.75097811  0.15657061  0.11185624    -0.00700
C657        C  0.74067817  0.13394833  0.14677725    -0.12500
C658        C  0.77061478  0.09167678  0.15933747     0.01500
H659        H  0.84589117  0.07241977  0.08184440     0.14500
H660        H  0.71285472  0.15225173  0.16570410     0.14500
C661        C  0.76220902  0.07305645  0.19658439     0.36100
C662        C  0.79562838  0.14979003  0.05027582     0.36000
N663        N  0.75521170  0.05794618  0.22635578    -0.44200
N664        N  0.80317779  0.16440437  0.02045397    -0.44200
C665        C  0.91564621  0.09210956  0.33694065    -0.00600
C666        C  0.88905541  0.04484074  0.33183542    -0.12500
C667        C  0.89537915  0.01618714  0.29931456     0.01600
C668        C  0.92968149  0.03424682  0.27089796    -0.00700
C669        C  0.95996078  0.07875053  0.27750936    -0.12500
C670        C  0.95322091  0.10768208  0.30987065     0.01500
H671        H  0.86023944  0.03180290  0.35223723     0.14500
H672        H  0.98747427  0.09257302  0.25649853     0.14500
C673        C  0.98398024  0.15426151  0.31358427     0.36100
C674        C  0.86282931  0.97090708  0.29503303     0.36000
N675        N  0.00860279  0.19165129  0.31642114    -0.44200
N676        N  0.83653149  0.93474693  0.29174321    -0.44200
C677        C  0.99153483  0.01634573  0.04112682    -0.00600
C678        C  0.03952360  0.04137989  0.03445003    -0.12500
C679        C  0.05829174  0.04942632  0.99858827     0.01600
C680        C  0.02843256  0.03239080  0.96885969    -0.00700
C681        C  0.97943815  0.00916414  0.97556682    -0.12500
C682        C  0.96060985  0.00142922  0.01147542     0.01500
H683        H  0.06364052  0.05237661  0.05735118     0.14500
H684        H  0.95539631  0.99797295  0.95267848     0.14500
C685        C  0.90874975  0.98024277  0.01727538     0.36100
C686        C  0.10976485  0.07178403  0.99329551     0.36000
N687        N  0.86686195  0.96402172  0.02191286    -0.44200
N688        N  0.15152336  0.08871541  0.98951371    -0.44200
C689        C  0.48369540  0.31207441  0.71232752    -0.00600
C690        C  0.53843324  0.30624068  0.71574902    -0.12500
C691        C  0.56173557  0.25676418  0.71656359     0.01600
C692        C  0.52959511  0.21251667  0.71454373    -0.00700
C693        C  0.47490118  0.21880004  0.71979573    -0.12500
C694        C  0.45156870  0.26822555  0.71824550     0.01500
H695        H  0.56348537  0.34012403  0.71298375     0.14500
H696        H  0.44980967  0.18480386  0.71999969     0.14500
C697        C  0.39497840  0.27170535  0.71740464     0.36100
C698        C  0.61829904  0.25303906  0.71411037     0.36000
N699        N  0.34962123  0.27435450  0.71667908    -0.44200
N700        N  0.66364671  0.25013725  0.71212186    -0.44200
C701        C  0.40134840  0.01100292  0.65082009    -0.00600
C702        C  0.37409559  0.02467154  0.61874316    -0.12500
C703        C  0.33499162  0.99244504  0.60519550     0.01600
C704        C  0.32208138  0.94635062  0.62423345    -0.00700
C705        C  0.34592360  0.93475443  0.65762498    -0.12500
C706        C  0.38463297  0.96691950  0.67143867     0.01500
H707        H  0.38649293  0.05798953  0.60226289     0.14500
H708        H  0.33597014  0.89895937  0.67214916     0.14500
C709        C  0.40838994  0.95178246  0.70566128     0.36100
C710        C  0.31292732  0.00425379  0.56981661     0.36000
N711        N  0.42741229  0.93940047  0.73301461    -0.44200
N712        N  0.29552742  0.01324383  0.54131175    -0.44200
C713        C  0.67176804  0.16642010  0.58373123    -0.00600
C714        C  0.72409573  0.14869959  0.58003759    -0.12500
C715        C  0.75398352  0.15730967  0.54774120     0.01600
C716        C  0.73150475  0.18392946  0.51760469    -0.00700
C717        C  0.68082074  0.20540837  0.52243117    -0.12500
C718        C  0.65123096  0.19746436  0.55503020     0.01500
H719        H  0.74133931  0.12580597  0.60191009     0.14500
H720        H  0.66343492  0.22746638  0.50020054     0.14500
C721        C  0.59973947  0.22112997  0.55768892     0.36100
C722        C  0.80666576  0.13605431  0.54612846     0.36000
N723        N  0.55871385  0.24067063  0.55981965    -0.44200
N724        N  0.84892285  0.11915375  0.54499225    -0.44200
C725        C  0.77129232  0.86971423  0.61044969    -0.00600
C726        C  0.73905747  0.89295527  0.58417088    -0.12500
C727        C  0.70783602  0.93611209  0.59314974     0.01600
C728        C  0.70798771  0.95623546  0.62922708    -0.00700
C729        C  0.74505823  0.93753543  0.65393005    -0.12500
C730        C  0.77680372  0.89458621  0.64493447     0.01500
H731        H  0.73567285  0.87538644  0.55729652     0.14500
H732        H  0.74594507  0.95338059  0.68148308     0.14500
C733        C  0.81034106  0.87422298  0.67324841     0.36100
C734        C  0.67409694  0.95751586  0.56535509     0.36000
N735        N  0.83705832  0.85813082  0.69609008    -0.44200
N736        N  0.64708916  0.97476775  0.54312563    -0.44200
C737        C  0.59515713  0.98257243  0.76657505    -0.00600
C738        C  0.56998325  0.93495874  0.77418349    -0.12500
C739        C  0.57804236  0.90761058  0.80726492     0.01600
C740        C  0.61289140  0.92726311  0.83354066    -0.00700
C741        C  0.63535458  0.97643015  0.82682321    -0.12500
C742        C  0.62688187  0.00402889  0.79408071     0.01500
H743        H  0.54446880  0.91843415  0.75388724     0.14500
H744        H  0.66190052  0.99269747  0.84656204     0.14500
C745        C  0.65399264  0.05287798  0.78898882     0.36100
C746        C  0.55017441  0.85944536  0.81317729     0.36000
N747        N  0.67571001  0.09202313  0.78501375    -0.44200
N748        N  0.52752007  0.82102818  0.81805542    -0.44200
C749        C  0.49219515  0.81775503  0.28560110    -0.00600
C750        C  0.45856211  0.77505923  0.28431002    -0.12500
C751        C  0.47919659  0.72451321  0.28580816     0.01600
C752        C  0.53427598  0.71693230  0.28863083    -0.00700
C753        C  0.56756769  0.75898911  0.28122661    -0.12500
C754        C  0.54678358  0.80953290  0.27944950     0.01500
H755        H  0.41649314  0.78086569  0.28766888     0.14500
H756        H  0.60980163  0.75348036  0.28182675     0.14500
C757        C  0.58277413  0.85267104  0.27645720     0.36100
C758        C  0.44274775  0.68175135  0.28951330     0.36000
N759        N  0.61159693  0.88724685  0.27425234    -0.44200
N760        N  0.41347435  0.64767956  0.29285006    -0.44200
C761        C  0.29092076  0.83908727  0.48576475    -0.00600
C762        C  0.33544856  0.80934488  0.47536710    -0.12500
C763        C  0.36280946  0.81860189  0.44187291     0.01600
C764        C  0.34605219  0.85874757  0.41778652    -0.00700
C765        C  0.29899822  0.88523822  0.42679543    -0.12500
C766        C  0.27147295  0.87578508  0.46001360     0.01500
H767        H  0.35033996  0.77998632  0.49408083     0.14500
H768        H  0.28457554  0.91543251  0.40854559     0.14500
C769        C  0.22374037  0.90521777  0.46682410     0.36100
C770        C  0.40824326  0.78660629  0.43335859     0.36000
N771        N  0.18547505  0.92881700  0.47213925    -0.44200
N772        N  0.44447686  0.76072562  0.42648300    -0.44200
C773        C  0.70785390  0.06387001  0.38539608    -0.00600
C774        C  0.69340741  0.06442799  0.34829059    -0.12500
C775        C  0.65176630  0.03425595  0.33631939     0.01600
C776        C  0.62420806  0.00229341  0.36167619    -0.00700
C777        C  0.64320662  0.99670430  0.39764763    -0.12500
C778        C  0.68456521  0.02747530  0.40973686     0.01500
H779        H  0.71230543  0.09138028  0.32913390     0.14500
H780        H  0.62245692  0.97216972  0.41748621     0.14500
C781        C  0.69823662  0.02526967  0.44803943     0.36100
C782        C  0.63627334  0.03908268  0.29848387     0.36000
N783        N  0.70958034  0.02401347  0.47866883    -0.44200
N784        N  0.62390355  0.04306171  0.26815724    -0.44200
C785        C  0.51788433  0.02129861  0.54040836    -0.00600
C786        C  0.52244452  0.96978598  0.52835590    -0.12500
C787        C  0.51059114  0.95675352  0.49231208     0.01600
C788        C  0.49289097  0.99583647  0.46779053    -0.00700
C789        C  0.48672959  0.04695636  0.48018059    -0.12500
C790        C  0.49860814  0.05998867  0.51614349     0.01500
H791        H  0.53676892  0.93980022  0.54685469     0.14500
H792        H  0.47225655  0.07690883  0.46169071     0.14500
C793        C  0.48841510  0.11293599  0.52746730     0.36100
C794        C  0.51971985  0.90361424  0.48096056     0.36000
N795        N  0.47972695  0.15535769  0.53629141    -0.44200
N796        N  0.52719241  0.86106772  0.47190043    -0.44200
C797        C  0.46997528  0.24015245  0.03614699    -0.00600
C798        C  0.47437595  0.29423185  0.02994497    -0.12500
C799        C  0.52318640  0.31868270  0.03161579     0.01600
C800        C  0.56827114  0.28804731  0.03757939    -0.00700
C801        C  0.56474026  0.23359727  0.03398565    -0.12500
C802        C  0.51577325  0.20923636  0.03412502     0.01500
H803        H  0.43911729  0.31820629  0.02987817     0.14500
H804        H  0.59976261  0.20974322  0.03692468     0.14500
C805        C  0.51406690  0.15338590  0.03863976     0.36100
C806        C  0.52437062  0.37479033  0.03351890     0.36000
N807        N  0.51288200  0.10864875  0.04250363    -0.44200
N808        N  0.52519437  0.41973506  0.03530254    -0.44200
C809        C  0.27865592  0.37753043  0.10504871    -0.00600
C810        C  0.28642899  0.40002868  0.13976915    -0.12500
C811        C  0.25420195  0.44077930  0.15254942     0.01600
C812        C  0.21411906  0.46006923  0.13002732    -0.00700
C813        C  0.21164949  0.44272148  0.09351518    -0.12500
C814        C  0.24335773  0.40175191  0.08089579     0.01500
H815        H  0.31386790  0.38231614  0.15860985     0.14500
H816        H  0.18223088  0.45891807  0.07546618     0.14500
C817        C  0.23650343  0.38344398  0.04387425     0.36100
C818        C  0.25930836  0.45770135  0.19006766     0.36000
N819        N  0.23085035  0.36885494  0.01420645    -0.44200
N820        N  0.26346748  0.47111267  0.22016501    -0.44200
C821        C  0.41642243  0.10304609  0.17132656    -0.00600
C822        C  0.43855048  0.12957512  0.20089894    -0.12500
C823        C  0.44780898  0.10466839  0.23475773     0.01600
C824        C  0.43517716  0.05131761  0.23994365    -0.00700
C825        C  0.41586509  0.02414031  0.20962817    -0.12500
C826        C  0.40643380  0.04914917  0.17583541     0.01500
H827        H  0.44655768  0.17084384  0.19825383     0.14500
H828        H  0.40648411  0.98320603  0.21251898     0.14500
C829        C  0.38553744  0.01831033  0.14661085     0.36100
C830        C  0.46857374  0.13590489  0.26382828     0.36000
N831        N  0.36873874  0.99356587  0.12322008    -0.44200
N832        N  0.48516784  0.16113836  0.28703588    -0.44200
C833        C  0.11953103  0.00941868  0.14343941    -0.00600
C834        C  0.13830268  0.04619642  0.16811639    -0.12500
C835        C  0.18007360  0.07881532  0.15827785     0.01600
C836        C  0.20411359  0.07518040  0.12290751    -0.00700
C837        C  0.18977942  0.03443670  0.09991576    -0.12500
C838        C  0.14792339  0.00151853  0.10977848     0.01500
H839        H  0.11817457  0.05180825  0.19443134     0.14500
H840        H  0.20869462  0.03065377  0.07300843     0.14500
C841        C  0.13275662  0.96317624  0.08325829     0.36100
C842        C  0.19620284  0.11674486  0.18479438     0.36000
N843        N  0.12073496  0.93264868  0.06183287    -0.44200
N844        N  0.20870262  0.14686998  0.20633563    -0.44200
C845        C  0.24260471  0.18608522  0.98462932    -0.00600
C846        C  0.19272289  0.20866682  0.97946677    -0.12500
C847        C  0.16446391  0.20061174  0.94724684     0.01600
C848        C  0.18581430  0.16906715  0.91868985    -0.00700
C849        C  0.23754141  0.15018550  0.92254454    -0.12500
C850        C  0.26592536  0.15846686  0.95475325     0.01500
H851        H  0.17441848  0.23112076  0.00141160     0.14500
H852        H  0.25531548  0.12669110  0.90094184     0.14500
C853        C  0.31809900  0.13629797  0.95649044     0.36100
C854        C  0.11250723  0.22323572  0.94555376     0.36000
N855        N  0.35997020  0.11862319  0.95767626    -0.44200
N856        N  0.07083892  0.24137385  0.94441838    -0.44200
C857        C  0.96134293  0.24466406  0.46273632    -0.00600
C858        C  0.96493097  0.29924553  0.46520117    -0.12500
C859        C  0.01384407  0.32362277  0.46561558     0.01600
C860        C  0.05976054  0.29272056  0.46477760    -0.00700
C861        C  0.05522011  0.23874199  0.47114837    -0.12500
C862        C  0.00639293  0.21427777  0.46951783     0.01500
H863        H  0.93000750  0.32305602  0.46165361     0.14500
H864        H  0.09046482  0.21480606  0.47203816     0.14500
C865        C  0.00513216  0.15812025  0.46935247     0.36100
C866        C  0.01555251  0.37946740  0.46084198     0.36000
N867        N  0.00435614  0.11309046  0.46913356    -0.44200
N868        N  0.01684235  0.42417595  0.45679150    -0.44200
C869        C  0.09009008  0.48513768  0.26475920    -0.00600
C870        C  0.08040621  0.43141738  0.26760698    -0.12500
C871        C  0.08921419  0.40346617  0.30024586     0.01600
C872        C  0.10831518  0.42912091  0.33165442    -0.00700
C873        C  0.11486661  0.48341078  0.32955705    -0.12500
C874        C  0.10566705  0.51145222  0.29688641     0.01500
H875        H  0.06798349  0.41032355  0.24364224     0.14500
H876        H  0.12880303  0.50404464  0.35329101     0.14500
C877        C  0.11370602  0.56703330  0.29728611     0.36100
C878        C  0.08131906  0.34787901  0.29937230     0.36000
N879        N  0.12004689  0.61159493  0.29765138    -0.44200
N880        N  0.07512176  0.30333373  0.29831342    -0.44200
C881        C  0.31806539  0.07472576  0.37528141    -0.00600
C882        C  0.32312499  0.09578089  0.41065668    -0.12500
C883        C  0.29319119  0.13880513  0.42191715     0.01600
C884        C  0.25761150  0.16175370  0.39742866    -0.00700
C885        C  0.24729394  0.13617073  0.36423526    -0.12500
C886        C  0.27717608  0.09293775  0.35296986     0.01500
H887        H  0.35280862  0.08044424  0.42883502     0.14500
H888        H  0.21923287  0.15272244  0.34534302     0.14500
C889        C  0.26823370  0.07156204  0.31706652     0.36100
C890        C  0.30085375  0.15946030  0.45820451     0.36000
N891        N  0.26080827  0.05442747  0.28832384    -0.44200
N892        N  0.30665352  0.17565242  0.48742702    -0.44200
C893        C  0.25485524  0.28461206  0.28706674    -0.00600
C894        C  0.22375382  0.30561795  0.25912146    -0.12500
C895        C  0.23181277  0.29130476  0.22245853     0.01600
C896        C  0.27199788  0.25516150  0.21319985    -0.00700
C897        C  0.30262275  0.23370177  0.24125942    -0.12500
C898        C  0.29444727  0.24785297  0.27787607    -0.03300
H899        H  0.19301995  0.33361418  0.26591935     0.14500
H900        H  0.33324215  0.20549246  0.23460744     0.14500
C901        C  0.32623639  0.22246849  0.30524639     0.36100
C902        C  0.19904289  0.31553428  0.19518071     0.36000
N903        N  0.35189015  0.20198039  0.32697256    -0.44200
N904        N  0.17257926  0.33497021  0.17346873    -0.44200
C905        C  0.40095609  0.53447724  0.35698460    -0.00600
C906        C  0.37543573  0.54286505  0.39124136    -0.12500
C907        C  0.33342326  0.51143114  0.40298769     0.01600
C908        C  0.31647277  0.47120422  0.37999700    -0.00700
C909        C  0.33637898  0.46874081  0.34370687    -0.12500
C910        C  0.37813518  0.50007086  0.33196480     0.01500
H911        H  0.39161373  0.57014448  0.41050711     0.14500
H912        H  0.32170180  0.43957859  0.32519005     0.14500
C913        C  0.39914089  0.49314406  0.29507682     0.36100
C914        C  0.31229665  0.51807593  0.43984989     0.36000
N915        N  0.41603785  0.48735509  0.26557086    -0.44200
N916        N  0.29532070  0.52380981  0.46934261    -0.44200
C917        C  0.33818782  0.36315262  0.58397405    -0.00600
C918        C  0.36179254  0.33192883  0.55653733    -0.12500
C919        C  0.33801120  0.32447257  0.52250378     0.01600
C920        C  0.28871971  0.34806885  0.51518183    -0.00700
C921        C  0.26304154  0.37532505  0.54379418    -0.12500
C922        C  0.28707921  0.38338902  0.57763306     0.01500
H923        H  0.40055719  0.31549731  0.56077695     0.14500
H924        H  0.22501504  0.39313577  0.53909431     0.14500
C925        C  0.25914824  0.41549861  0.60410584     0.36100
C926        C  0.36655465  0.29404671  0.49535758     0.36000
N927        N  0.23664485  0.44148736  0.62508852    -0.44200
N928        N  0.38979798  0.26985219  0.47368365    -0.44200
loop_ 
_geom_bond_atom_site_label_1 
_geom_bond_atom_site_label_2 
_geom_bond_distance 
_geom_bond_site_symmetry_2 
_ccdc_geom_bond_type 
O1           C16   1.262       .  A
O1           Al9   1.901       .  S
C2           O12   1.263       .  A
C2            O3   1.262       .  A
C2          C872   1.501       .  S
O3           Al5   1.925       .  S
O4            C6   1.259       .  A
O4           Al5   1.875       .  S
Al5          O13   1.861       .  S
Al5          O15   1.909       .  S
Al5          O14   1.772       .  S
C6           O19   1.267       .  A
C6          C893   1.474       .  S
O7           C17   1.257       .  A
O7           Al9   1.872       .  S
O8           C21   1.267       .  A
O8          Al18   1.912       .  S
Al9          O22   1.922       .  S
Al9          O19   1.927       .  S
Al9          O14   1.766       .  S
O10          C17   1.264       .  A
O10         Al18   1.931       .  S
O11          C20   1.272       .  A
O11         Al18   1.952       .  S
O12         Al18   1.918       .  S
O13          C20   1.257       .  A
O14         Al18   1.782       .  S
O15          C16   1.260       .  A
C16         C884   1.481       .  S
C17         C908   1.478       .  S
C20         C860   1.478       .  S
C21          O22   1.266       .  A
C21         C920   1.499       .  S
O23          C38   1.267       .  A
O23         Al31   1.928       .  S
C24          O34   1.262       .  A
C24          O25   1.258       .  A
C24         C821   1.503       .  S
O25         Al27   1.906       .  S
O26          C28   1.268       .  A
O26         Al27   1.940       .  S
Al27         O35   1.961       .  S
Al27         O37   1.909       .  S
Al27         O36   1.781       .  S
C28          O41   1.256       .  A
C28         C836   1.482       .  S
O29          C39   1.269       .  A
O29         Al31   1.936       .  S
O30          C43   1.261       .  A
O30         Al40   1.915       .  S
Al31         O44   1.900       .  S
Al31         O41   1.866       .  S
Al31         O36   1.769       .  S
O32          C39   1.260       .  A
O32         Al40   1.869       .  S
O33          C42   1.258       .  A
O33         Al40   1.852       .  S
O34         Al40   1.928       .  S
O35          C42   1.275       .  A
O36         Al40   1.778       .  S
O37          C38   1.263       .  A
C38         C845   1.506   1_554  S
C39         C896   1.476       .  S
C42         C797   1.479       .  S
C43          O44   1.261       .  A
C43         C809   1.482       .  S
O45          C60   1.266       .  A
O45         Al53   1.932       .  S
C46          O56   1.262       .  A
C46          O47   1.259       .  A
C46         C764   1.501       .  S
O47         Al49   1.902       .  S
O48          C50   1.268       .  A
O48         Al49   1.941   1_545  S
Al49         O57   1.962       .  S
Al49         O59   1.907       .  S
Al49         O58   1.779       .  S
C50          O63   1.255       .  A
C50         C881   1.480       .  S
O51          C61   1.270   1_545  A
O51         Al53   1.934       .  S
O52          C65   1.262       .  A
O52         Al62   1.921       .  S
Al53         O66   1.900       .  S
Al53         O63   1.861       .  S
Al53         O58   1.766   1_545  S
O54          C61   1.258       .  A
O54         Al62   1.869       .  S
O55          C64   1.257       .  A
O55         Al62   1.854       .  S
O56         Al62   1.931       .  S
O57          C64   1.275       .  A
O58         Al62   1.777       .  S
O59          C60   1.264   1_565  A
C60         C824   1.506       .  S
C61         C788   1.469       .  S
C64         C749   1.477       .  S
C65          O66   1.262   1_565  A
C65         C776   1.480   1_565  S
O67          C82   1.259       .  A
O67         Al75   1.883   1_545  S
C68          O78   1.258       .  A
C68          O69   1.266       .  A
C68         C713   1.498       .  S
O69         Al71   1.939       .  S
O70          C72   1.257       .  A
O70         Al71   1.868       .  S
Al71         O79   1.858       .  S
Al71         O81   1.929       .  S
Al71         O80   1.771       .  S
C72          O85   1.268   1_545  A
C72         C785   1.472       .  S
O73          C83   1.255       .  A
O73         Al75   1.859       .  S
O74          C87   1.261       .  A
O74         Al84   1.893       .  S
Al75         O88   1.937       .  S
Al75         O85   1.940       .  S
Al75         O80   1.766   1_565  S
O76          C83   1.269   1_545  A
O76         Al84   1.945       .  S
O77          C86   1.272       .  A
O77         Al84   1.955       .  S
O78         Al84   1.884       .  S
O79          C86   1.257       .  A
O80         Al84   1.775       .  S
O81          C82   1.266       .  A
C82         C701   1.483       .  S
C83         C728   1.475       .  S
C86         C692   1.481       .  S
C87          O88   1.268   1_545  A
C87         C737   1.496   1_545  S
O89         C104   1.262   1_545  A
O89         Al97   1.900   1_455  S
C90         O100   1.260       .  A
C90          O91   1.260       .  A
C90         C644   1.501       .  S
O91         Al93   1.922       .  S
O92          C94   1.261   1_565  A
O92         Al93   1.880       .  S
Al93        O101   1.865   1_655  S
Al93        O103   1.921   1_655  S
Al93        O102   1.776       .  S
C94         O107   1.266       .  A
C94         C677   1.459       .  S
O95         C105   1.255       .  A
O95         Al97   1.858       .  S
O96         C109   1.263   1_565  A
O96        Al106   1.909       .  S
Al97        O110   1.911       .  S
Al97        O107   1.923       .  S
Al97        O102   1.768   1_545  S
O98         C105   1.264       .  A
O98        Al106   1.930   1_545  S
O99         C108   1.273       .  A
O99        Al106   1.946       .  S
O100       Al106   1.911       .  S
O101        C108   1.261   1_455  A
O102       Al106   1.782       .  S
O103        C104   1.260       .  A
C104        C833   1.489   1_565  S
C105        C653   1.472       .  S
C108        C629   1.474       .  S
C109        O110   1.264       .  A
C109        C668   1.495       .  S
O111        C126   1.265   1_565  A
O111       Al119   1.923   1_565  S
C112        O122   1.264       .  A
C112        O113   1.260       .  A
C112        C848   1.506       .  S
O113       Al115   1.908       .  S
O114        C116   1.271   1_545  A
O114       Al115   1.951       .  S
Al115       O123   1.959       .  S
Al115       O125   1.915       .  S
Al115       O124   1.777       .  S
C116        O129   1.259       .  A
C116        C605   1.486       .  S
O117        C127   1.267       .  A
O117       Al119   1.932       .  S
O118        C131   1.266       .  A
O118       Al128   1.932   1_655  S
Al119       O132   1.895   1_455  S
Al119       O129   1.876   1_545  S
Al119       O124   1.765       .  S
O120        C127   1.257       .  A
O120       Al128   1.875       .  S
O121        C130   1.256       .  A
O121       Al128   1.857       .  S
O122       Al128   1.933       .  S
O123        C130   1.273       .  A
O124       Al128   1.772       .  S
O125        C126   1.262       .  A
C126        C620   1.478   1_545  S
C127        C680   1.462       .  S
C130        C581   1.482       .  S
C131        O132   1.262       .  A
C131        C596   1.482       .  S
O133        C148   1.263       .  A
O133       Al141   1.893       .  S
C134        O144   1.256       .  A
C134        O135   1.263       .  A
C134        C665   1.496       .  S
O135       Al137   1.931       .  S
O136        C138   1.258       .  A
O136       Al137   1.880       .  S
Al137       O145   1.856       .  S
Al137       O147   1.931       .  S
Al137       O146   1.773       .  S
C138        O151   1.265       .  A
C138        C572   1.465       .  S
O139        C149   1.256       .  A
O139       Al141   1.861       .  S
O140        C153   1.260       .  A
O140       Al150   1.897       .  S
Al141       O154   1.925       .  S
Al141       O151   1.923       .  S
Al141       O146   1.767       .  S
O142        C149   1.269       .  A
O142       Al150   1.944       .  S
O143        C152   1.272       .  A
O143       Al150   1.954       .  S
O144       Al150   1.887       .  S
O145        C152   1.257       .  A
O146       Al150   1.779       .  S
O147        C148   1.266       .  A
C148        C557   1.485       .  S
C149        C773   1.475       .  S
C152        C857   1.481       .  S
C153        O154   1.265       .  A
C153        C716   1.496       .  S
O155        C170   1.264       .  A
O155       Al163   1.930       .  S
C156        O166   1.260       .  A
C156        O157   1.258       .  A
C156        C521   1.501       .  S
O157       Al159   1.903       .  S
O158        C160   1.267       .  A
O158       Al159   1.932       .  S
Al159       O167   1.952       .  S
Al159       O169   1.912       .  S
Al159       O168   1.780       .  S
C160        O173   1.257       .  A
C160        C533   1.476       .  S
O161        C171   1.267       .  A
O161       Al163   1.927       .  S
O162        C175   1.262       .  A
O162       Al172   1.917       .  S
Al163       O176   1.898       .  S
Al163       O173   1.865       .  S
Al163       O168   1.770       .  S
O164        C171   1.260       .  A
O164       Al172   1.881       .  S
O165        C174   1.258       .  A
O165       Al172   1.852       .  S
O166       Al172   1.924       .  S
O167        C174   1.273       .  A
O168       Al172   1.779       .  S
O169        C170   1.264       .  A
C170        C545   1.507   1_554  S
C171        C569   1.467       .  S
C174        C800   1.478       .  S
C175        O176   1.263       .  A
C175        C656   1.480       .  S
O177        C192   1.265       .  A
O177       Al185   1.924       .  S
C178        O188   1.260       .  A
C178        O179   1.259       .  A
C178        C476   1.506       .  S
O179       Al181   1.913       .  S
O180        C182   1.270       .  A
O180       Al181   1.953       .  S
Al181       O189   1.976       .  S
Al181       O191   1.913       .  S
Al181       O190   1.778       .  S
C182        O195   1.256       .  A
C182        C500   1.484       .  S
O183        C193   1.268       .  A
O183       Al185   1.930       .  S
O184        C197   1.259       .  A
O184       Al194   1.911       .  S
Al185       O198   1.903       .  S
Al185       O195   1.861       .  S
Al185       O190   1.768       .  S
O186        C193   1.259       .  A
O186       Al194   1.869       .  S
O187        C196   1.255       .  A
O187       Al194   1.844       .  S
O188       Al194   1.924       .  S
O189        C196   1.278       .  A
O190       Al194   1.778       .  S
O191        C192   1.265       .  A
C192        C509   1.504       .  S
C193        C488   1.475       .  S
C196        C461   1.481       .  S
C197        O198   1.263       .  A
C197        C725   1.482       .  S
O199        C214   1.264       .  A
O199       Al207   1.906       .  S
C200        O210   1.258       .  A
C200        O201   1.263       .  A
C200        C740   1.498       .  S
O201       Al203   1.933       .  S
O202        C204   1.259       .  A
O202       Al203   1.865       .  S
Al203       O211   1.861       .  S
Al203       O213   1.912       .  S
Al203       O212   1.773       .  S
C204        O217   1.268       .  A
C204        C485   1.474       .  S
O205        C215   1.257       .  A
O205       Al207   1.872       .  S
O206        C219   1.261       .  A
O206       Al216   1.892       .  S
Al207       O220   1.941       .  S
Al207       O217   1.934       .  S
Al207       O212   1.770       .  S
O208        C215   1.266       .  A
O208       Al216   1.937       .  S
O209        C218   1.273       .  A
O209       Al216   1.953       .  S
O210       Al216   1.892       .  S
O211        C218   1.257       .  A
O212       Al216   1.779       .  S
O213        C214   1.260       .  A
C214        C449   1.487       .  S
C215        C593   1.482       .  S
C218        C440   1.479       .  S
C219        O220   1.270       .  A
C219        C641   1.499   1_556  S
O221        C236   1.264       .  A
O221       Al229   1.927       .  S
C222        O232   1.262       .  A
C222        O223   1.256       .  A
C222        C512   1.504       .  S
O223       Al225   1.902       .  S
O224        C226   1.270       .  A
O224       Al225   1.947       .  S
Al225       O233   1.964       .  S
Al225       O235   1.902       .  S
Al225       O234   1.776       .  S
C226        O239   1.257       .  A
C226        C560   1.480       .  S
O227        C237   1.268       .  A
O227       Al229   1.934       .  S
O228        C241   1.265       .  A
O228       Al238   1.929       .  S
Al229       O242   1.891       .  S
Al229       O239   1.860       .  S
Al229       O234   1.769       .  S
O230        C237   1.257       .  A
O230       Al238   1.867       .  S
O231        C240   1.255       .  A
O231       Al238   1.841       .  S
O232       Al238   1.929       .  S
O233        C240   1.276       .  A
O234       Al238   1.777       .  S
O235        C236   1.260       .  A
C236        C524   1.499       .  S
C237        C425   1.462       .  S
C240        C752   1.479       .  S
C241        O242   1.261       .  A
C241        C905   1.481       .  S
O243        C258   1.264       .  A
O243       Al251   1.903       .  S
C244        O254   1.255       .  A
C244        O245   1.264       .  A
C244        C917   1.500       .  S
O245       Al247   1.932       .  S
O246        C248   1.258       .  A
O246       Al247   1.876       .  S
Al247       O255   1.863       .  S
Al247       O257   1.931       .  S
Al247       O256   1.774       .  S
C248        O261   1.264       .  A
C248        C428   1.458       .  S
O249        C259   1.258       .  A
O249       Al251   1.872       .  S
O250        C263   1.262       .  A
O250       Al260   1.905       .  S
Al251       O264   1.918       .  S
Al251       O261   1.917       .  S
Al251       O256   1.768       .  S
O252        C259   1.268       .  A
O252       Al260   1.941       .  S
O253        C262   1.272       .  A
O253       Al260   1.950       .  S
O254       Al260   1.891       .  S
O255        C262   1.259       .  A
O256       Al260   1.782       .  S
O257        C258   1.265       .  A
C258        C497   1.488       .  S
C259        C404   1.485       .  S
C262        C689   1.481       .  S
C263        O264   1.265       .  A
C263        C416   1.499       .  S
O265        C280   1.264       .  A
O265       Al273   1.914       .  S
C266        O276   1.257       .  A
C266        O267   1.266       .  A
C266        C617   1.494       .  S
O267       Al269   1.950       .  S
O268        C270   1.258       .  A
O268       Al269   1.892       .  S
Al269       O277   1.912       .  S
Al269       O279   1.920       .  S
Al269       O278   1.796       .  S
C270        O283   1.259       .  A
C270        C704   1.464       .  S
O271        C281   1.263       .  A
O271       Al273   1.915       .  S
O272        C285   1.264       .  A
O272       Al282   1.904       .  S
Al273       O286   1.886       .  S
Al273       O283   1.896       .  S
Al273       O278   1.782       .  S
O274        C281   1.252       .  A
O274       Al282   1.862       .  S
O275        C284   1.259       .  A
O275       Al282   1.891       .  S
O276       Al282   1.891       .  S
O277        C284   1.260       .  A
O278       Al282   1.787       .  S
O279        C280   1.264       .  A
C280        C761   1.502       .  S
C281        C389   1.481       .  S
C284        C464   1.470       .  S
C285        O286   1.261       .  A
C285        C401   1.470       .  S
O287        C302   1.262       .  A
O287       Al295   1.898       .  S
C288        O298   1.257       .  A
C288        O289   1.264       .  A
C288        C413   1.498       .  S
O289       Al291   1.932       .  S
O290        C292   1.257       .  A
O290       Al291   1.862       .  S
Al291       O299   1.849       .  S
Al291       O301   1.929       .  S
Al291       O300   1.776       .  S
C292        O305   1.271       .  A
C292        C392   1.470       .  S
O293        C303   1.256       .  A
O293       Al295   1.871       .  S
O294        C307   1.260       .  A
O294       Al304   1.885       .  S
Al295       O308   1.943       .  S
Al295       O305   1.939       .  S
Al295       O300   1.763       .  S
O296        C303   1.268       .  A
O296       Al304   1.945       .  S
O297        C306   1.275       .  A
O297       Al304   1.968       .  S
O298       Al304   1.893       .  S
O299        C306   1.258       .  A
O300       Al304   1.779       .  S
O301        C302   1.262       .  A
C302        C608   1.486       .  S
C303        C365   1.481       .  S
C306        C437   1.482       .  S
C307        O308   1.269       .  A
C307        C377   1.492   1_556  S
O309        C324   1.267       .  A
O309       Al317   1.939       .  S
C310        O320   1.266       .  A
C310        O311   1.255       .  A
C310        C548   1.508       .  S
O311       Al313   1.891       .  S
O312        C314   1.270       .  A
O312       Al313   1.944       .  S
Al313       O321   1.962       .  S
Al313       O323   1.905       .  S
Al313       O322   1.779       .  S
C314        O327   1.255       .  A
C314        C452   1.480       .  S
O315        C325   1.270   1_455  A
O315       Al317   1.935   1_455  S
O316        C329   1.265       .  A
O316       Al326   1.933   1_455  S
Al317       O330   1.898   1_655  S
Al317       O327   1.863       .  S
Al317       O322   1.769       .  S
O318        C325   1.257       .  A
O318       Al326   1.870       .  S
O319        C328   1.258   1_455  A
O319       Al326   1.856   1_455  S
O320       Al326   1.944       .  S
O321        C328   1.274       .  A
O322       Al326   1.778       .  S
O323        C324   1.263       .  A
C324        C473   1.507       .  S
C325        C353   1.479   1_655  S
C328        C584   1.482       .  S
C329        O330   1.262       .  A
C329        C368   1.485       .  S
O331        C346   1.263       .  A
O331       Al339   1.896   1_655  S
C332        O342   1.257       .  A
C332        O333   1.259       .  A
C332        C380   1.492       .  S
O333       Al335   1.922       .  S
O334        C336   1.258       .  A
O334       Al335   1.873       .  S
Al335       O343   1.845       .  S
Al335       O345   1.915   1_455  S
Al335       O344   1.778       .  S
C336        O349   1.270       .  A
C336        C356   1.479       .  S
O337        C347   1.256       .  A
O337       Al339   1.859       .  S
O338        C351   1.260       .  A
O338       Al348   1.898       .  S
Al339       O352   1.933       .  S
Al339       O349   1.936       .  S
Al339       O344   1.765       .  S
O340        C347   1.268       .  A
O340       Al348   1.940       .  S
O341        C350   1.274       .  A
O341       Al348   1.953       .  S
O342       Al348   1.892       .  S
O343        C350   1.256       .  A
O344       Al348   1.778       .  S
O345        C346   1.260       .  A
C346        C536   1.480       .  S
C347        C812   1.477       .  S
C350        C632   1.474       .  S
C351        O352   1.267       .  A
C351        C869   1.503       .  S
C353        C354   1.402       .  A
C353        C358   1.418       .  A
C354        C355   1.393   1_556  A
C354        H359   1.088       .  S
C355        C356   1.418       .  A
C355        C362   1.445       .  S
C356        C357   1.402       .  A
C357        C358   1.395   1_554  A
C357        H360   1.088       .  S
C358        C361   1.445       .  S
C361        N363   1.157   1_455  T
C362        N364   1.157       .  T
C365        C366   1.408       .  A
C365        C370   1.409       .  A
C366        C367   1.401       .  A
C366        H371   1.085       .  S
C367        C368   1.410       .  A
C367        C374   1.444       .  S
C368        C369   1.410       .  A
C369        C370   1.403       .  A
C369        H372   1.084       .  S
C370        C373   1.445       .  S
C373        N375   1.157       .  T
C374        N376   1.157       .  T
C377        C378   1.407       .  A
C377        C382   1.417       .  A
C378        C379   1.408       .  A
C378        H383   1.084       .  S
C379        C380   1.416       .  A
C379        C386   1.444       .  S
C380        C381   1.405       .  A
C381        C382   1.398       .  A
C381        H384   1.085       .  S
C382        C385   1.446       .  S
C385        N387   1.157       .  T
C386        N388   1.157       .  T
C389        C390   1.411       .  A
C389        C394   1.410       .  A
C390        C391   1.390       .  A
C390        H395   1.085       .  S
C391        C392   1.405       .  A
C391        C398   1.446       .  S
C392        C393   1.409       .  A
C393        C394   1.399       .  A
C393        H396   1.085       .  S
C394        C397   1.444       .  S
C397        N399   1.157       .  T
C398        N400   1.157       .  T
C401        C402   1.407       .  A
C401        C406   1.406       .  A
C402        C403   1.406       .  A
C402        H407   1.085       .  S
C403        C404   1.411       .  A
C403        C410   1.443       .  S
C404        C405   1.408       .  A
C405        C406   1.397       .  A
C405        H408   1.085       .  S
C406        C409   1.445       .  S
C409        N411   1.157       .  T
C410        N412   1.157       .  T
C413        C414   1.410       .  A
C413        C418   1.416       .  A
C414        C415   1.406       .  A
C414        H419   1.084       .  S
C415        C416   1.417       .  A
C415        C422   1.445       .  S
C416        C417   1.408       .  A
C417        C418   1.401       .  A
C417        H420   1.084       .  S
C418        C421   1.443       .  S
C421        N423   1.157       .  T
C422        N424   1.158       .  T
C425        C426   1.403       .  A
C425        C430   1.411       .  A
C426        C427   1.394       .  A
C426        H431   1.085       .  S
C427        C428   1.407       .  A
C427        C434   1.442       .  S
C428        C429   1.400       .  A
C429        C430   1.391       .  A
C429        H432   1.085       .  S
C430        C433   1.443       .  S
C433        N435   1.156       .  T
C434        N436   1.156       .  T
C437        C438   1.410       .  A
C437        C442   1.406       .  A
C438        C439   1.397       .  A
C438        H443   1.086       .  S
C439        C440   1.409       .  A
C439        C446   1.444       .  S
C440        C441   1.411       .  A
C441        C442   1.402       .  A
C441        H444   1.085       .  S
C442        C445   1.443       .  S
C445        N447   1.157       .  T
C446        N448   1.157       .  T
C449        C450   1.401       .  A
C449        C454   1.423       .  A
C450        C451   1.399       .  A
C450        H455   1.085       .  S
C451        C452   1.416       .  A
C451        C458   1.444       .  S
C452        C453   1.398       .  A
C453        C454   1.401       .  A
C453        H456   1.085       .  S
C454        C457   1.445       .  S
C457        N459   1.157       .  T
C458        N460   1.157       .  T
C461        C462   1.400   1_655  A
C461        C466   1.421       .  A
C462        C463   1.401       .  A
C462        H467   1.084       .  S
C463        C464   1.412       .  A
C463        C470   1.443       .  S
C464        C465   1.396       .  A
C465        C466   1.400   1_455  A
C465        H468   1.085       .  S
C466        C469   1.446       .  S
C469        N471   1.157       .  T
C470        N472   1.157       .  T
C473        C474   1.409       .  A
C473        C478   1.418       .  A
C474        C475   1.407       .  A
C474        H479   1.084       .  S
C475        C476   1.418       .  A
C475        C482   1.444       .  S
C476        C477   1.410       .  A
C477        C478   1.409       .  A
C477        H480   1.084       .  S
C478        C481   1.444       .  S
C481        N483   1.157   1_655  T
C482        N484   1.157       .  T
C485        C486   1.405       .  A
C485        C490   1.413       .  A
C486        C487   1.393       .  A
C486        H491   1.085       .  S
C487        C488   1.413       .  A
C487        C494   1.445       .  S
C488        C489   1.406       .  A
C489        C490   1.394       .  A
C489        H492   1.086       .  S
C490        C493   1.445       .  S
C493        N495   1.158       .  T
C494        N496   1.157       .  T
C497        C498   1.412       .  A
C497        C502   1.410       .  A
C498        C499   1.406       .  A
C498        H503   1.085       .  S
C499        C500   1.409       .  A
C499        C506   1.444       .  S
C500        C501   1.407       .  A
C501        C502   1.399       .  A
C501        H504   1.085       .  S
C502        C505   1.444       .  S
C505        N507   1.157       .  T
C506        N508   1.157       .  T
C509        C510   1.407       .  A
C509        C514   1.419       .  A
C510        C511   1.407       .  A
C510        H515   1.085       .  S
C511        C512   1.421       .  A
C511        C518   1.445       .  S
C512        C513   1.408       .  A
C513        C514   1.407       .  A
C513        H516   1.085       .  S
C514        C517   1.444       .  S
C517        N519   1.157       .  T
C518        N520   1.158       .  T
C521        C522   1.408       .  A
C521        C526   1.419       .  A
C522        C523   1.404       .  A
C522        H527   1.085       .  S
C523        C524   1.418       .  A
C523        C530   1.444       .  S
C524        C525   1.408       .  A
C525        C526   1.408       .  A
C525        H528   1.085       .  S
C526        C529   1.444       .  S
C529        N531   1.157       .  T
C530        N532   1.157       .  T
C533        C534   1.400       .  A
C533        C538   1.414       .  A
C534        C535   1.401       .  A
C534        H539   1.085       .  S
C535        C536   1.421       .  A
C535        C542   1.445       .  S
C536        C537   1.399       .  A
C537        C538   1.393       .  A
C537        H540   1.085       .  S
C538        C541   1.443       .  S
C541        N543   1.156       .  T
C542        N544   1.158       .  T
C545        C546   1.407       .  A
C545        C550   1.420       .  A
C546        C547   1.406       .  A
C546        H551   1.085       .  S
C547        C548   1.422       .  A
C547        C554   1.445       .  S
C548        C549   1.408       .  A
C549        C550   1.410       .  A
C549        H552   1.084       .  S
C550        C553   1.444   1_556  S
C553        N555   1.157       .  T
C554        N556   1.158       .  T
C557        C558   1.411       .  A
C557        C562   1.411       .  A
C558        C559   1.403       .  A
C558        H563   1.085       .  S
C559        C560   1.409       .  A
C559        C566   1.444       .  S
C560        C561   1.407       .  A
C561        C562   1.397       .  A
C561        H564   1.086       .  S
C562        C565   1.445       .  S
C565        N567   1.157       .  T
C566        N568   1.157       .  T
C569        C570   1.404       .  A
C569        C574   1.410       .  A
C570        C571   1.394       .  A
C570        H575   1.085       .  S
C571        C572   1.408       .  A
C571        C578   1.443       .  S
C572        C573   1.402       .  A
C573        C574   1.394       .  A
C573        H576   1.085       .  S
C574        C577   1.442       .  S
C577        N579   1.156       .  T
C578        N580   1.156       .  T
C581        C582   1.411   1_455  A
C581        C586   1.408       .  A
C582        C583   1.401       .  A
C582        H587   1.086       .  S
C583        C584   1.407       .  A
C583        C590   1.444       .  S
C584        C585   1.410   1_655  A
C585        C586   1.400       .  A
C585        H588   1.086       .  S
C586        C589   1.443       .  S
C589        N591   1.157       .  T
C590        N592   1.157       .  T
C593        C594   1.406       .  A
C593        C598   1.411   1_565  A
C594        C595   1.397       .  A
C594        H599   1.085       .  S
C595        C596   1.410   1_565  A
C595        C602   1.444       .  S
C596        C597   1.408       .  A
C597        C598   1.403       .  A
C597        H600   1.085       .  S
C598        C601   1.443       .  S
C601        N603   1.157       .  T
C602        N604   1.157       .  T
C605        C606   1.403       .  A
C605        C610   1.416       .  A
C606        C607   1.405       .  A
C606        H611   1.085       .  S
C607        C608   1.420       .  A
C607        C614   1.445       .  S
C608        C609   1.401       .  A
C609        C610   1.397       .  A
C609        H612   1.086       .  S
C610        C613   1.443       .  S
C613        N615   1.156       .  T
C614        N616   1.157       .  T
C617        C618   1.410       .  A
C617        C622   1.416       .  A
C618        C619   1.417       .  A
C618        H623   1.084       .  S
C619        C620   1.413       .  A
C619        C626   1.442   1_565  S
C620        C621   1.393       .  A
C621        C622   1.393       .  A
C621        H624   1.087       .  S
C622        C625   1.438       .  S
C625        N627   1.155       .  T
C626        N628   1.157   1_455  T
C629        C630   1.399       .  A
C629        C634   1.415   1_655  A
C630        C631   1.397       .  A
C630        H635   1.085       .  S
C631        C632   1.418   1_655  A
C631        C638   1.447       .  S
C632        C633   1.399       .  A
C633        C634   1.398       .  A
C633        H636   1.085       .  S
C634        C637   1.444       .  S
C637        N639   1.157       .  T
C638        N640   1.158       .  T
C641        C642   1.406       .  A
C641        C646   1.419       .  A
C642        C643   1.406       .  A
C642        H647   1.084       .  S
C643        C644   1.420       .  A
C643        C650   1.444       .  S
C644        C645   1.408       .  A
C645        C646   1.405       .  A
C645        H648   1.084       .  S
C646        C649   1.445       .  S
C649        N651   1.158       .  T
C650        N652   1.157       .  T
C653        C654   1.405       .  A
C653        C658   1.407       .  A
C654        C655   1.394       .  A
C654        H659   1.085       .  S
C655        C656   1.409       .  A
C655        C662   1.444       .  S
C656        C657   1.412       .  A
C657        C658   1.402       .  A
C657        H660   1.084       .  S
C658        C661   1.445       .  S
C661        N663   1.158       .  T
C662        N664   1.157       .  T
C665        C666   1.410       .  A
C665        C670   1.415       .  A
C666        C667   1.404       .  A
C666        H671   1.084       .  S
C667        C668   1.415       .  A
C667        C674   1.444   1_545  S
C668        C669   1.409       .  A
C669        C670   1.404       .  A
C669        H672   1.084       .  S
C670        C673   1.444       .  S
C673        N675   1.157   1_655  T
C674        N676   1.157       .  T
C677        C678   1.400   1_655  A
C677        C682   1.407       .  A
C678        C679   1.393   1_554  A
C678        H683   1.086       .  S
C679        C680   1.410       .  A
C679        C686   1.443       .  S
C680        C681   1.402   1_455  A
C681        C682   1.394   1_556  A
C681        H684   1.086   1_545  S
C682        C685   1.442   1_545  S
C685        N687   1.156       .  T
C686        N688   1.157       .  T
C689        C690   1.409       .  A
C689        C694   1.409       .  A
C690        C691   1.399       .  A
C690        H695   1.085       .  S
C691        C692   1.409       .  A
C691        C698   1.444       .  S
C692        C693   1.410       .  A
C693        C694   1.399       .  A
C693        H696   1.086       .  S
C694        C697   1.444       .  S
C697        N699   1.157       .  T
C698        N700   1.157       .  T
C701        C702   1.411       .  A
C701        C706   1.416   1_545  A
C702        C703   1.400   1_545  A
C702        H707   1.086       .  S
C703        C704   1.404       .  A
C703        C710   1.445   1_565  S
C704        C705   1.399       .  A
C705        C706   1.395       .  A
C705        H708   1.085       .  S
C706        C709   1.445       .  S
C709        N711   1.157       .  T
C710        N712   1.157       .  T
C713        C714   1.409       .  A
C713        C718   1.416       .  A
C714        C715   1.402       .  A
C714        H719   1.084       .  S
C715        C716   1.417       .  A
C715        C722   1.445       .  S
C716        C717   1.408       .  A
C717        C718   1.404       .  A
C717        H720   1.084       .  S
C718        C721   1.443       .  S
C721        N723   1.157       .  T
C722        N724   1.158       .  T
C725        C726   1.401       .  A
C725        C730   1.422       .  A
C726        C727   1.396       .  A
C726        H731   1.085       .  S
C727        C728   1.414       .  A
C727        C734   1.444       .  S
C728        C729   1.398       .  A
C729        C730   1.400       .  A
C729        H732   1.085       .  S
C730        C733   1.445       .  S
C733        N735   1.157       .  T
C734        N736   1.157       .  T
C737        C738   1.408       .  A
C737        C742   1.417   1_565  A
C738        C739   1.407       .  A
C738        H743   1.085       .  S
C739        C740   1.417       .  A
C739        C746   1.443       .  S
C740        C741   1.407       .  A
C741        C742   1.401   1_565  A
C741        H744   1.085       .  S
C742        C745   1.445       .  S
C745        N747   1.157       .  T
C746        N748   1.157       .  T
C749        C750   1.398       .  A
C749        C754   1.418       .  A
C750        C751   1.399       .  A
C750        H755   1.085       .  S
C751        C752   1.421       .  A
C751        C758   1.447       .  S
C752        C753   1.399       .  A
C753        C754   1.400       .  A
C753        H756   1.084       .  S
C754        C757   1.445       .  S
C757        N759   1.157       .  T
C758        N760   1.157       .  T
C761        C762   1.409       .  A
C761        C766   1.418       .  A
C762        C763   1.409       .  A
C762        H767   1.084       .  S
C763        C764   1.417       .  A
C763        C770   1.444       .  S
C764        C765   1.407       .  A
C765        C766   1.403       .  A
C765        H768   1.084       .  S
C766        C769   1.445       .  S
C769        N771   1.157       .  T
C770        N772   1.157       .  T
C773        C774   1.406       .  A
C773        C778   1.407       .  A
C774        C775   1.397       .  A
C774        H779   1.085       .  S
C775        C776   1.408       .  A
C775        C782   1.444       .  S
C776        C777   1.411   1_545  A
C777        C778   1.402   1_565  A
C777        H780   1.085       .  S
C778        C781   1.444       .  S
C781        N783   1.157       .  T
C782        N784   1.157       .  T
C785        C786   1.401   1_545  A
C785        C790   1.416       .  A
C786        C787   1.396       .  A
C786        H791   1.085       .  S
C787        C788   1.416       .  A
C787        C794   1.445       .  S
C788        C789   1.399   1_565  A
C789        C790   1.393       .  A
C789        H792   1.086       .  S
C790        C793   1.445       .  S
C793        N795   1.157       .  T
C794        N796   1.157       .  T
C797        C798   1.411       .  A
C797        C802   1.407       .  A
C798        C799   1.399       .  A
C798        H803   1.085       .  S
C799        C800   1.407       .  A
C799        C806   1.444       .  S
C800        C801   1.410       .  A
C801        C802   1.399       .  A
C801        H804   1.085       .  S
C802        C805   1.444       .  S
C805        N807   1.157       .  T
C806        N808   1.157       .  T
C809        C810   1.411       .  A
C809        C814   1.409       .  A
C810        C811   1.402       .  A
C810        H815   1.085       .  S
C811        C812   1.408       .  A
C811        C818   1.444       .  S
C812        C813   1.407       .  A
C813        C814   1.396       .  A
C813        H816   1.086       .  S
C814        C817   1.444       .  S
C817        N819   1.157       .  T
C818        N820   1.157       .  T
C821        C822   1.408       .  A
C821        C826   1.417       .  A
C822        C823   1.407       .  A
C822        H827   1.084       .  S
C823        C824   1.420       .  A
C823        C830   1.444       .  S
C824        C825   1.409       .  A
C825        C826   1.407       .  A
C825        H828   1.084   1_545  S
C826        C829   1.444       .  S
C829        N831   1.157   1_545  T
C830        N832   1.157       .  T
C833        C834   1.402       .  A
C833        C838   1.423       .  A
C834        C835   1.397       .  A
C834        H839   1.086       .  S
C835        C836   1.415       .  A
C835        C842   1.445       .  S
C836        C837   1.400       .  A
C837        C838   1.404       .  A
C837        H840   1.086       .  S
C838        C841   1.445   1_545  S
C841        N843   1.157       .  T
C842        N844   1.157       .  T
C845        C846   1.409       .  A
C845        C850   1.419       .  A
C846        C847   1.406       .  A
C846        H851   1.083   1_556  S
C847        C848   1.419       .  A
C847        C854   1.444       .  S
C848        C849   1.410       .  A
C849        C850   1.408       .  A
C849        H852   1.084       .  S
C850        C853   1.444       .  S
C853        N855   1.158       .  T
C854        N856   1.157       .  T
C857        C858   1.410       .  A
C857        C862   1.408   1_655  A
C858        C859   1.398   1_655  A
C858        H863   1.085       .  S
C859        C860   1.409       .  A
C859        C866   1.445       .  S
C860        C861   1.409       .  A
C861        C862   1.400       .  A
C861        H864   1.085       .  S
C862        C865   1.443       .  S
C865        N867   1.157       .  T
C866        N868   1.157       .  T
C869        C870   1.406       .  A
C869        C874   1.420       .  A
C870        C871   1.404       .  A
C870        H875   1.084       .  S
C871        C872   1.420       .  A
C871        C878   1.444       .  S
C872        C873   1.407       .  A
C873        C874   1.408       .  A
C873        H876   1.084       .  S
C874        C877   1.444       .  S
C877        N879   1.157       .  T
C878        N880   1.157       .  T
C881        C882   1.408       .  A
C881        C886   1.409       .  A
C882        C883   1.397       .  A
C882        H887   1.085       .  S
C883        C884   1.408       .  A
C883        C890   1.444       .  S
C884        C885   1.410       .  A
C885        C886   1.401       .  A
C885        H888   1.085       .  S
C886        C889   1.444       .  S
C889        N891   1.157       .  T
C890        N892   1.157       .  T
C893        C894   1.404       .  A
C893        C898   1.413       .  A
C894        C895   1.396       .  A
C894        H899   1.085       .  S
C895        C896   1.414       .  A
C895        C902   1.445       .  S
C896        C897   1.405       .  A
C897        C898   1.394       .  A
C897        H900   1.085       .  S
C898        C901   1.446       .  S
C901        N903   1.157       .  T
C902        N904   1.157       .  T
C905        C906   1.409       .  A
C905        C910   1.411       .  A
C906        C907   1.402       .  A
C906        H911   1.085       .  S
C907        C908   1.411       .  A
C907        C914   1.444       .  S
C908        C909   1.405       .  A
C909        C910   1.395       .  A
C909        H912   1.085       .  S
C910        C913   1.445       .  S
C913        N915   1.157       .  T
C914        N916   1.157       .  T
C917        C918   1.407       .  A
C917        C922   1.421       .  A
C918        C919   1.405       .  A
C918        H923   1.085       .  S
C919        C920   1.420       .  A
C919        C926   1.444       .  S
C920        C921   1.405       .  A
C921        C922   1.404       .  A
C921        H924   1.085       .  S
C922        C925   1.445       .  S
C925        N927   1.157       .  T
C926        N928   1.157       .  T
