geometry optimzed in LAMMPS
_audit_creation_date              2020-11-30 
_audit_creation_method            'lammps2cif' 
_symmetry_space_group_name_H-M    'P1' 
_symmetry_Int_Tables_number       1 
_symmetry_cell_setting            triclinic 
loop_ 
_symmetry_equiv_pos_as_xyz 
  x,y,z 
_cell_length_a                    43.862148464676416 
_cell_length_b                    43.79137865705266 
_cell_length_c                    42.0793553001893 
_cell_angle_alpha                 90.00966107776395 
_cell_angle_beta                  90.07413379801059 
_cell_angle_gamma                 90.06693341587693 
loop_ 
_atom_site_label 
_atom_site_type_symbol 
_atom_site_fract_x 
_atom_site_fract_y 
_atom_site_fract_z 
_atom_site_charge 
Zr1        Zr  0.14662546  0.76888017  0.12857558     2.17510
O2          O  0.17627294  0.80562490  0.09787728    -0.50890
O3          O  0.14334932  0.72989627  0.08743177    -0.74090
O4          O  0.20000005  0.75543463  0.12654232    -0.80880
O5          O  0.06784029  0.80636723  0.10966770    -0.82620
O6          O  0.21400583  0.73150665  0.17262284    -0.78250
O7          O  0.11692507  0.80438789  0.09243930    -0.89880
O8          O  0.14924603  0.69192584  0.12147630    -0.75840
O9          O  0.15456046  0.72185808  0.15753191    -0.85340
O10         O  0.09900524  0.74247689  0.12877214    -0.85020
O11         O  0.16568931  0.77907713  0.18200910    -0.71780
O12         O  0.11431099  0.80213154  0.15780340    -0.83920
Zr13       Zr  0.09013819  0.74143643  0.23872755     2.26420
Zr14       Zr  0.17156226  0.73130846  0.21069883     2.06270
Zr15       Zr  0.06648332  0.77602753  0.15720615     2.10050
Zr16       Zr  0.10743121  0.69591267  0.15760622     1.78760
O17         O  0.04794132  0.82646613  0.17233697    -0.92720
O18         O  0.12773237  0.64479906  0.16593871    -0.40530
O19         O  0.07488636  0.72936481  0.18535082    -0.77160
O20         O  0.12308197  0.70614421  0.21092231    -0.95850
O21         O  0.13901918  0.76528507  0.23971144    -0.89150
O22         O  0.08335291  0.78789451  0.21002564    -0.91990
C23         C  0.14460531  0.70134406  0.09353225     1.01760
C24         C  0.08890452  0.81414268  0.09040002     1.14690
C25         C  0.21923876  0.74161743  0.14436817     1.05470
O26         O  0.20581808  0.68777761  0.21462611    -0.94150
O27         O  0.16345689  0.69747381  0.25813145    -0.89890
O28         O  0.11487010  0.70647090  0.27435505    -0.83040
C29         C  0.14040312  0.69276183  0.27679331     1.12110
O30         O  0.16916840  0.84855365  0.19066614    -0.96120
Zr31       Zr  0.13212671  0.81190801  0.21113345     1.88940
O32         O  0.07687890  0.78468769  0.27413028    -0.72770
O33         O  0.20635222  0.76022536  0.24431314    -0.52030
O34         O  0.17033954  0.81873422  0.25261935    -0.96710
O35         O  0.11231795  0.86317831  0.20198481    -0.53930
O36         O  0.10174020  0.82712414  0.25668633    -0.73290
C37         C  0.08298667  0.81353601  0.27523899     0.99050
O38         O  0.05365022  0.71993546  0.27654966    -0.62110
O39         O  0.02805368  0.75644363  0.12040800    -0.56910
O40         O  0.04430926  0.72711068  0.21210577    -0.93600
O41         O  0.02040407  0.76070072  0.18321160    -0.92020
O42         O  0.07306559  0.68341878  0.11393466    -0.92380
O43         O  0.07180030  0.65687131  0.17551736    -0.91160
C44         C  0.02399249  0.74739160  0.20972589     1.17900
H45         H  0.09110862  0.73914132  0.10761903     0.33840
H46         H  0.12343519  0.68608223  0.22033039     0.44690
H47         H  0.06762555  0.80047492  0.21907517     0.38220
H48         H  0.18534571  0.78893649  0.18047887     0.34700
H49         H  0.12851245  0.63563480  0.14443853     0.26490
H50         H  0.21844289  0.74446495  0.25552218     0.32420
H51         H  0.16354548  0.83693304  0.26463418     0.38330
H52         H  0.07557019  0.66116581  0.11071541     0.32790
H53         H  0.03766087  0.75668892  0.09913618     0.31670
H54         H  0.06041318  0.84108948  0.15998081     0.33350
H55         H  0.11964694  0.87542384  0.22025803     0.32320
H56         H  0.06720032  0.66247372  0.19780042     0.36320
H57         H  0.04933056  0.69910700  0.26854421     0.29050
H58         H  0.18689286  0.79353135  0.08137888     0.33280
H59         H  0.17515946  0.86140582  0.20900418     0.36130
H60         H  0.02623900  0.73446773  0.12563101     0.28750
H61         H  0.06462079  0.71650874  0.29672588     0.41620
H62         H  0.19651173  0.67206637  0.20073135     0.31670
H63         H  0.14935133  0.64809428  0.17180876     0.39290
H64         H  0.09006278  0.86146781  0.20539818     0.31140
H65         H  0.22092112  0.76971911  0.22930820     0.31200
H66         H  0.19257528  0.81282265  0.11236910     0.31470
Zr67       Zr  0.87758794  0.80613037  0.13632542     2.17510
O68         O  0.84993658  0.76887661  0.10421410    -0.50890
O69         O  0.88608730  0.84312822  0.09387533    -0.74090
O70         O  0.82413711  0.81969004  0.13006480    -0.80880
O71         O  0.95671897  0.76645631  0.12538648    -0.82620
O72         O  0.80795146  0.84592648  0.17385203    -0.78250
O73         O  0.90922101  0.76937844  0.10374653    -0.89880
O74         O  0.88201430  0.88487425  0.12364105    -0.75840
O75         O  0.87058237  0.85517834  0.16117764    -0.85340
O76         O  0.92659202  0.82919624  0.13956312    -0.85020
O77         O  0.85464706  0.79911206  0.18856384    -0.71780
O78         O  0.90558956  0.77364350  0.17089889    -0.83920
Zr79       Zr  0.92666311  0.83748878  0.24946628     2.26420
Zr80       Zr  0.84904753  0.84879863  0.21310150     2.06270
Zr81       Zr  0.95487717  0.79658142  0.17347994     2.10050
Zr82       Zr  0.91954884  0.87794277  0.16417091     1.78760
O83         O  0.96498675  0.74385906  0.18872695    -0.92720
O84         O  0.90169249  0.93008567  0.17180057    -0.40530
O85         O  0.94882473  0.84548586  0.19766780    -0.77160
O86         O  0.89882268  0.87190923  0.21589515    -0.95850
O87         O  0.87696084  0.81542198  0.24759495    -0.89150
O88         O  0.93328388  0.78891289  0.22409541    -0.91990
C89         C  0.88638043  0.87218398  0.09705633     1.01760
C90         C  0.93710316  0.75910969  0.10420666     1.14690
C91         C  0.80389910  0.83411444  0.14616062     1.05470
O92         O  0.81571638  0.89315632  0.21126106    -0.94150
O93         O  0.85714806  0.88560134  0.25725665    -0.89890
O94         O  0.89249883  0.86123674  0.28682651    -0.83040
C95         C  0.87491735  0.88388614  0.28163998     1.12110
O96         O  0.84696799  0.73040246  0.20215273    -0.96120
Zr97       Zr  0.88403662  0.76679280  0.22314965     1.88940
O98         O  0.93556789  0.79757082  0.28923749    -0.72770
O99         O  0.81202405  0.82410768  0.24764161    -0.52030
O100        O  0.84384793  0.76403131  0.26291477    -0.96710
O101        O  0.90143206  0.71409230  0.21847405    -0.53930
O102        O  0.91362125  0.75379085  0.27088979    -0.73290
C103        C  0.93094535  0.76856335  0.29025979     0.99050
O104        O  0.95437492  0.88147919  0.26999356    -0.62110
O105        O  0.99896108  0.81015945  0.14142187    -0.56910
O106        O  0.97860338  0.82900947  0.26344973    -0.93600
O107        O  0.98632246  0.82481647  0.21208699    -0.92020
O108        O  0.95599643  0.88628917  0.12135108    -0.92380
O109        O  0.95810000  0.91532010  0.17921621    -0.91160
C110        C  0.99268723  0.81684744  0.24059312     1.17900
H111        H  0.93641826  0.83062004  0.11908004     0.33840
H112        H  0.89912452  0.89223825  0.22471851     0.44690
H113        H  0.94783266  0.77598885  0.23459307     0.38220
H114        H  0.83473113  0.78999414  0.18602285     0.34700
H115        H  0.90310119  0.93958922  0.15049778     0.26490
H116        H  0.79943916  0.84108009  0.25593291     0.32420
H117        H  0.84972586  0.74670367  0.27672946     0.38330
H118        H  0.95188616  0.90732975  0.11388369     0.32790
H119        H  0.99329840  0.80686069  0.11891545     0.31670
H120        H  0.95210930  0.73114854  0.17461516     0.33350
H121        H  0.89228122  0.70337207  0.23686505     0.32320
H122        H  0.96125262  0.91194698  0.20225634     0.36320
H123        H  0.93974229  0.89865280  0.26946097     0.29050
H124        H  0.84051250  0.78069447  0.08671462     0.33280
H125        H  0.83811934  0.72000617  0.22088963     0.36130
H126        H  0.99935985  0.83271039  0.14314106     0.28750
H127        H  0.95731470  0.87693289  0.29279472     0.41620
H128        H  0.82613519  0.90754107  0.19671577     0.31670
H129        H  0.87953346  0.92800782  0.17571494     0.39290
H130        H  0.92347675  0.71475144  0.22345033     0.31140
H131        H  0.79830029  0.81294171  0.23297940     0.31200
H132        H  0.83266376  0.76202124  0.11757202     0.31470
Zr133      Zr  0.02810875  0.65363774  0.49695841     2.17510
O134        O  0.99039070  0.62459584  0.52695352    -0.50890
O135        O  0.06691964  0.65565930  0.03832015    -0.74090
O136        O  0.04058582  0.60000969  0.49899616    -0.80880
O137        O  0.99256831  0.73338409  0.01579978    -0.82620
O138        O  0.06461493  0.58585000  0.45307563    -0.78250
O139        O  0.99347945  0.68421218  0.03316545    -0.89880
O140        O  0.10467153  0.64875121  0.00434449    -0.75840
O141        O  0.07485271  0.64448979  0.46806405    -0.85340
O142        O  0.05582360  0.70053175  0.49696033    -0.85020
O143        O  0.01760470  0.63499296  0.44342628    -0.71780
O144        O  0.99588650  0.68702593  0.46777745    -0.83920
Zr145      Zr  0.05738757  0.70997588  0.38686795     2.26420
Zr146      Zr  0.06512817  0.62809281  0.41475940     2.06270
Zr147      Zr  0.02329215  0.73415241  0.46854381     2.10050
Zr148      Zr  0.10213300  0.69084648  0.46825537     1.78760
O149        O  0.97373489  0.75431445  0.45264606    -0.92720
O150        O  0.15237216  0.66871848  0.45975543    -0.40530
O151        O  0.06953175  0.72421143  0.44050097    -0.77160
O152        O  0.09166385  0.67591043  0.41471461    -0.95850
O153        O  0.03216811  0.66170095  0.38578476    -0.89150
O154        O  0.01116248  0.71779331  0.41558172    -0.91990
C155        C  0.09538169  0.65358865  0.03228238     1.01760
C156        C  0.98434749  0.71248950  0.03512544     1.14690
C157        C  0.05434233  0.58069031  0.48125106     1.05470
O158        O  0.10697224  0.59192695  0.40995396    -0.94150
O159        O  0.09940871  0.63542874  0.36769045    -0.89890
O160        O  0.09109578  0.68403384  0.35081514    -0.83040
C161        C  0.10446113  0.65823921  0.34875816     1.12110
O162        O  0.94823117  0.63350758  0.43484567    -0.96120
Zr163      Zr  0.98580827  0.66961137  0.41439053     1.88940
O164        O  0.01437548  0.72408305  0.35144730    -0.72770
O165        O  0.03485452  0.59433050  0.38129850    -0.52030
O166        O  0.97775890  0.63151781  0.37299797    -0.96710
O167        O  0.93527681  0.69106868  0.42349223    -0.53930
O168        O  0.97137957  0.70025989  0.36880223    -0.73290
C169        C  0.98544243  0.71865959  0.35026582     0.99050
O170        O  0.07999353  0.74782568  0.35097083    -0.62110
O171        O  0.04369860  0.77157027  0.50603903    -0.56910
O172        O  0.07345785  0.75517381  0.41371942    -0.93600
O173        O  0.04125854  0.77990116  0.44346636    -0.92020
O174        O  0.11555967  0.72471666  0.51206320    -0.92380
O175        O  0.14218123  0.72564841  0.45104543    -0.91160
C176        C  0.05379097  0.77603123  0.41661467     1.17900
H177        H  0.05934782  0.70826303  0.01814544     0.33840
H178        H  0.11166901  0.67509702  0.40530369     0.44690
H179        H  0.99900145  0.73382256  0.40645182     0.38220
H180        H  0.00727575  0.61554617  0.44485157     0.34700
H181        H  0.16154879  0.66753660  0.48123471     0.26490
H182        H  0.05008377  0.58288049  0.36869811     0.32420
H183        H  0.95971716  0.63879790  0.36104765     0.38330
H184        H  0.13764213  0.72137726  0.51548787     0.32790
H185        H  0.04265494  0.76185745  0.52725024     0.31670
H186        H  0.95862377  0.74258590  0.46514078     0.33350
H187        H  0.92275614  0.68395486  0.40533336     0.32320
H188        H  0.13700834  0.73043221  0.42868184     0.36320
H189        H  0.09590521  0.73775752  0.33806999     0.29050
H190        H  0.00201960  0.61365667  0.04361056     0.33280
H191        H  0.93502059  0.62812878  0.41658342     0.36130
H192        H  0.06579282  0.77252303  0.00132109     0.28750
H193        H  0.06382523  0.75368852  0.33574841     0.41620
H194        H  0.12342319  0.60067852  0.42328751     0.31670
H195        H  0.14828278  0.64721477  0.45384554     0.39290
H196        H  0.93762879  0.71327185  0.41985637     0.31140
H197        H  0.02632903  0.57902238  0.39615866     0.31200
H198        H  0.98310261  0.60846419  0.51228949     0.31470
Zr199      Zr  0.99755084  0.92293081  0.48913879     2.17510
O200        O  0.03548639  0.95020789  0.52069838    -0.50890
O201        O  0.96044571  0.91513754  0.03155979    -0.74090
O202        O  0.98424912  0.97629766  0.49584814    -0.80880
O203        O  0.03597858  0.84311363  0.99994713    -0.82620
O204        O  0.95787351  0.99277454  0.45223513    -0.78250
O205        O  0.03353949  0.89055658  0.02189382    -0.89880
O206        O  0.91889389  0.92005907  0.00166452    -0.75840
O207        O  0.94872029  0.93080791  0.46422407    -0.85340
O208        O  0.97366505  0.87433591  0.48594599    -0.85020
O209        O  0.00484594  0.94591857  0.43690082    -0.71780
O210        O  0.02945868  0.89452450  0.45451343    -0.83920
Zr211      Zr  0.96528739  0.87450755  0.37585985     2.26420
Zr212      Zr  0.95533764  0.95230251  0.41231447     2.06270
Zr213      Zr  0.00571175  0.84560745  0.45200953     2.10050
Zr214      Zr  0.92511659  0.88222840  0.46128282     1.78760
O215        O  0.05818179  0.83515061  0.43641933    -0.92720
O216        O  0.87340153  0.90107708  0.45355967    -0.40530
O217        O  0.95700461  0.85249948  0.42773952    -0.77160
O218        O  0.93141669  0.90285852  0.40950706    -0.95850
O219        O  0.98813917  0.92392465  0.37772735    -0.89150
O220        O  0.01367047  0.86705628  0.40130223    -0.91990
C221        C  0.93143668  0.91556094  0.02831547     1.01760
C222        C  0.04346612  0.86251705  0.02128901     1.14690
C223        C  0.96967500  0.99657899  0.47995650     1.05470
O224        O  0.91207499  0.98703973  0.41327845    -0.94150
O225        O  0.91827989  0.94495500  0.36830540    -0.89890
O226        O  0.94166520  0.90902673  0.33862702    -0.83040
C227        C  0.91950390  0.92718287  0.34389775     1.12110
O228        O  0.07345289  0.95260248  0.42325778    -0.96120
Zr229      Zr  0.03657429  0.91602794  0.40223345     1.88940
O230        O  0.00504914  0.86496225  0.33613026    -0.72770
O231        O  0.98117058  0.98909601  0.37837048    -0.52030
O232        O  0.03983577  0.95626901  0.36245181    -0.96710
O233        O  0.08899732  0.89798433  0.40683488    -0.53930
O234        O  0.04912157  0.88616529  0.35454970    -0.73290
C235        C  0.03409605  0.86908528  0.33514598     0.99050
O236        O  0.92105225  0.84751464  0.35497456    -0.62110
O237        O  0.99141399  0.80195953  0.48450377    -0.56910
O238        O  0.97248218  0.82219350  0.36219200    -0.93600
O239        O  0.97623326  0.81516900  0.41363270    -0.92020
O240        O  0.91619152  0.84599325  0.50425513    -0.92380
O241        O  0.88720908  0.84411670  0.44647341    -0.91160
C242        C  0.98419250  0.80813194  0.38534636     1.17900
H243        H  0.97210658  0.86449811  0.00643020     0.33840
H244        H  0.91110246  0.90289027  0.40070306     0.44690
H245        H  0.02627679  0.85226654  0.39078065     0.38220
H246        H  0.01421316  0.96573934  0.43948548     0.34700
H247        H  0.86388744  0.89984414  0.47485235     0.26490
H248        H  0.96447205  0.00099301  0.36851009     0.32420
H249        H  0.05703271  0.95014966  0.34863438     0.38330
H250        H  0.89537788  0.85069335  0.51190248     0.32790
H251        H  0.99497357  0.80765279  0.50695659     0.31670
H252        H  0.07109227  0.84758729  0.45076073     0.33350
H253        H  0.09977481  0.90708685  0.38845879     0.32320
H254        H  0.89044072  0.84087906  0.42343148     0.36320
H255        H  0.90398597  0.86223543  0.35607447     0.29050
H256        H  0.02405442  0.95959942  0.03846363     0.33280
H257        H  0.08379140  0.96150789  0.40451991     0.36130
H258        H  0.96888377  0.80212241  0.98296245     0.28750
H259        H  0.92538633  0.84519613  0.33206083     0.41620
H260        H  0.89702626  0.97689716  0.42728166     0.31670
H261        H  0.87589043  0.92323079  0.44962191     0.39290
H262        H  0.08809428  0.87592783  0.40181274     0.31140
H263        H  0.99100080  0.00353872  0.39332357     0.31200
H264        H  0.04215985  0.96756069  0.50730764     0.31470
Zr265      Zr  0.64557240  0.80616096  0.11538543     2.17510
O266        O  0.67269481  0.76898593  0.14798555    -0.50890
O267        O  0.63809605  0.84405387  0.15710210    -0.74090
O268        O  0.69912127  0.81947514  0.12167357    -0.80880
O269        O  0.56595170  0.76687368  0.12601893    -0.82620
O270        O  0.71541540  0.84581543  0.07795733    -0.78250
O271        O  0.61322416  0.77005633  0.14820459    -0.89880
O272        O  0.64237654  0.88512700  0.12631326    -0.75840
O273        O  0.65285981  0.85493663  0.09003963    -0.85340
O274        O  0.59661720  0.82912477  0.11159444    -0.85020
O275        O  0.66901818  0.79888400  0.06345562    -0.71780
O276        O  0.61768152  0.77337178  0.08099556    -0.83920
Zr277      Zr  0.59729927  0.83641402  0.00145776     2.26420
Zr278      Zr  0.67464284  0.84830100  0.03827785     2.06270
Zr279      Zr  0.56846061  0.79630817  0.07757734     2.10050
Zr280      Zr  0.60400415  0.87762393  0.08665008     1.78760
O281        O  0.55838743  0.74344199  0.06277831    -0.92720
O282        O  0.62162312  0.92974476  0.07802077    -0.40530
O283        O  0.57482586  0.84498795  0.05304907    -0.77160
O284        O  0.62485242  0.87113886  0.03504001    -0.95850
O285        O  0.64699429  0.81445025  0.00405000    -0.89150
O286        O  0.59063827  0.78809076  0.02735095    -0.91990
C287        C  0.63860828  0.87303686  0.15330992     1.01760
C288        C  0.58529394  0.75980853  0.14753901     1.14690
C289        C  0.71939019  0.83399204  0.10565713     1.05470
O290        O  0.70815575  0.89261096  0.03980643    -0.94150
O291        O  0.66646554  0.88482447  0.49376425    -0.89890
O292        O  0.63102862  0.86059913  0.46391596    -0.83040
C293        C  0.64874780  0.88319947  0.46928620     1.12110
O294        O  0.67682747  0.73019829  0.05126030    -0.96120
Zr295      Zr  0.63992414  0.76608042  0.02919620     1.88940
O296        O  0.58902834  0.79532962  0.46251823    -0.72770
O297        O  0.71177235  0.82333626  0.00413989    -0.52030
O298        O  0.68063292  0.76273934  0.99006569    -0.96710
O299        O  0.62226322  0.71348958  0.03460099    -0.53930
O300        O  0.61145077  0.75204578  0.48129399    -0.73290
C301        C  0.59417955  0.76639281  0.46164768     0.99050
O302        O  0.56983195  0.88085777  0.98131557    -0.62110
O303        O  0.52387176  0.81013144  0.10875508    -0.56910
O304        O  0.54563079  0.82736294  0.98682117    -0.93600
O305        O  0.53722472  0.82368275  0.03814803    -0.92020
O306        O  0.56833450  0.88615367  0.13013774    -0.92380
O307        O  0.56538386  0.91518104  0.07252378    -0.91160
C308        C  0.53122232  0.81543283  0.00961972     1.17900
H309        H  0.58678391  0.83069921  0.13206118     0.33840
H310        H  0.62450989  0.89140814  0.02608510     0.44690
H311        H  0.57625446  0.77496321  0.01681514     0.38220
H312        H  0.68892834  0.78986149  0.06621896     0.34700
H313        H  0.62070787  0.93945522  0.09925556     0.26490
H314        H  0.72415599  0.84028015  0.99541045     0.32420
H315        H  0.67508508  0.74499822  0.97665305     0.38330
H316        H  0.57303365  0.90700100  0.13784907     0.32790
H317        H  0.52931307  0.80738925  0.13140003     0.31670
H318        H  0.57085848  0.73086822  0.07737795     0.33350
H319        H  0.63172832  0.70239448  0.01663946     0.32320
H320        H  0.54866865  0.90309868  0.06288423     0.36320
H321        H  0.55661544  0.88724472  0.99917987     0.29050
H322        H  0.68218168  0.78090238  0.16539559     0.33280
H323        H  0.68558464  0.71922666  0.03284325     0.36130
H324        H  0.52323468  0.83263217  0.10650140     0.28750
H325        H  0.58515282  0.89737645  0.97974625     0.41620
H326        H  0.69779729  0.90711239  0.05425200     0.31670
H327        H  0.64368872  0.92769751  0.07357707     0.39290
H328        H  0.60031832  0.71405680  0.02915931     0.31140
H329        H  0.72566074  0.81265449  0.01899417     0.31200
H330        H  0.68994551  0.76187366  0.13476264     0.31470
Zr331      Zr  0.37642365  0.76874043  0.12029193     2.17510
O332        O  0.34704784  0.80587587  0.15069198    -0.50890
O333        O  0.37950914  0.73064938  0.16228378    -0.74090
O334        O  0.32296116  0.75554477  0.12262662    -0.80880
O335        O  0.45524222  0.80684157  0.13775162    -0.82620
O336        O  0.30891461  0.73033096  0.07728985    -0.78250
O337        O  0.40624080  0.80520387  0.15528428    -0.89880
O338        O  0.37355753  0.69161847  0.12943112    -0.75840
O339        O  0.36833134  0.72106422  0.09258036    -0.85340
O340        O  0.42394925  0.74230428  0.12073587    -0.85020
O341        O  0.35731532  0.77777967  0.06668905    -0.71780
O342        O  0.40889017  0.80128693  0.09031624    -0.83920
Zr343      Zr  0.43297068  0.73851559  0.01118206     2.26420
Zr344      Zr  0.35133762  0.72936041  0.03922385     2.06270
Zr345      Zr  0.45660827  0.77511358  0.09142679     2.10050
Zr346      Zr  0.41535355  0.69504290  0.09317830     1.78760
O347        O  0.47618551  0.82468942  0.07463080    -0.92720
O348        O  0.39498305  0.64384518  0.08528770    -0.40530
O349        O  0.44826479  0.72768167  0.06471934    -0.77160
O350        O  0.39968432  0.70399955  0.03962658    -0.95850
O351        O  0.38419946  0.76250125  0.00956206    -0.89150
O352        O  0.43974599  0.78582450  0.03832395    -0.91990
C353        C  0.37792233  0.70194080  0.15709574     1.01760
C354        C  0.43426870  0.81504758  0.15685524     1.14690
C355        C  0.30370175  0.74120601  0.10523476     1.05470
O356        O  0.31717632  0.68560765  0.03626758    -0.94150
O357        O  0.35911992  0.69511129  0.49210611    -0.89890
O358        O  0.40795219  0.70335404  0.47625420    -0.83040
C359        C  0.38225145  0.69001752  0.47369026     1.12110
O360        O  0.35512299  0.84749700  0.05734865    -0.96120
Zr361      Zr  0.39104825  0.80984843  0.03683042     1.88940
O362        O  0.44539715  0.78034787  0.47407412    -0.72770
O363        O  0.31650259  0.75771909  0.00522988    -0.52030
O364        O  0.35171859  0.81661601  0.99650488    -0.96710
O365        O  0.41242849  0.86081980  0.04405211    -0.53930
O366        O  0.42015173  0.82313621  0.48975669    -0.73290
C367        C  0.43871816  0.80891403  0.47155068     0.99050
O368        O  0.46986076  0.71564342  0.97460766    -0.62110
O369        O  0.49460568  0.75637869  0.12913068    -0.56910
O370        O  0.47920960  0.72528592  0.03768859    -0.93600
O371        O  0.50287087  0.75901028  0.06660730    -0.92020
O372        O  0.44909226  0.68319779  0.13754022    -0.92380
O373        O  0.45140426  0.65589702  0.07666469    -0.91160
C374        C  0.49936413  0.74579087  0.04005787     1.17900
H375        H  0.43182774  0.73945935  0.14196975     0.33840
H376        H  0.39911769  0.68378644  0.03056743     0.44690
H377        H  0.45528391  0.79825360  0.02864358     0.38220
H378        H  0.33770266  0.78771359  0.06798362     0.34700
H379        H  0.39425893  0.63484341  0.10686137     0.26490
H380        H  0.30444676  0.74177270  0.99421886     0.32420
H381        H  0.35847388  0.83449225  0.98393530     0.38330
H382        H  0.44597603  0.66113141  0.14152025     0.32790
H383        H  0.48496745  0.75755083  0.15035256     0.31670
H384        H  0.46379626  0.83990904  0.08624514     0.33350
H385        H  0.40469770  0.87286736  0.02583417     0.32320
H386        H  0.45593632  0.66080946  0.05418928     0.36320
H387        H  0.47576532  0.69604538  0.98459137     0.29050
H388        H  0.33645261  0.79398420  0.16738167     0.33280
H389        H  0.34952114  0.86054495  0.03904247     0.36130
H390        H  0.49607857  0.73420208  0.12479334     0.28750
H391        H  0.45880171  0.70938458  0.95523402     0.41620
H392        H  0.32643645  0.67028299  0.05062209     0.31670
H393        H  0.37334951  0.64706995  0.07947049     0.39290
H394        H  0.43448319  0.85853082  0.03974482     0.31140
H395        H  0.30190771  0.76733541  0.02010227     0.31200
H396        H  0.33071194  0.81295085  0.13619951     0.31470
Zr397      Zr  0.49409692  0.65376050  0.25425925     2.17510
O398        O  0.53032353  0.62563241  0.22151325    -0.50890
O399        O  0.45425587  0.65729456  0.21412142    -0.74090
O400        O  0.48213773  0.59980905  0.25160187    -0.80880
O401        O  0.52797795  0.73422161  0.23514832    -0.82620
O402        O  0.45924079  0.58480679  0.29782507    -0.78250
O403        O  0.52908504  0.68475340  0.21877206    -0.89880
O404        O  0.41635390  0.65142965  0.24835880    -0.75840
O405        O  0.44749429  0.64536606  0.28347575    -0.85340
O406        O  0.46765068  0.70134747  0.25572632    -0.85020
O407        O  0.50533506  0.63386287  0.30708144    -0.71780
O408        O  0.52719928  0.68567544  0.28415185    -0.83920
Zr409      Zr  0.46828155  0.70826659  0.36644825     2.26420
Zr410      Zr  0.45799025  0.62733319  0.33599946     2.06270
Zr411      Zr  0.50099092  0.73337650  0.28484260     2.10050
Zr412      Zr  0.42177187  0.69271510  0.28518249     1.78760
O413        O  0.55407186  0.74865574  0.29111382    -0.92720
O414        O  0.37121302  0.67195739  0.29553701    -0.40530
O415        O  0.45495418  0.72549497  0.31387488    -0.77160
O416        O  0.43290675  0.67604349  0.33776937    -0.95850
O417        O  0.49214781  0.65933618  0.36583858    -0.89150
O418        O  0.51415441  0.71578534  0.33686372    -0.91990
C419        C  0.42578196  0.65575771  0.22035699     1.01760
C420        C  0.53713971  0.71333199  0.21629394     1.14690
C421        C  0.46919601  0.57994911  0.26944678     1.05470
O422        O  0.41502040  0.59222962  0.33900304    -0.94150
O423        O  0.42362526  0.63395181  0.38277274    -0.89890
O424        O  0.43408934  0.68142458  0.40185932    -0.83040
C425        C  0.41948657  0.65613357  0.40264406     1.12110
O426        O  0.57477367  0.63039363  0.31553587    -0.96120
Zr427      Zr  0.53826538  0.66706576  0.33679981     1.88940
O428        O  0.51175076  0.72016361  0.40178376    -0.72770
O429        O  0.48705814  0.59280609  0.36969113    -0.52030
O430        O  0.54531970  0.62861008  0.37798854    -0.96710
O431        O  0.58931168  0.68710318  0.32704601    -0.53930
O432        O  0.55435627  0.69751367  0.38212916    -0.73290
C433        C  0.54072241  0.71523059  0.40170408     0.99050
O434        O  0.44602226  0.74487476  0.40380118    -0.62110
O435        O  0.47963363  0.77421931  0.25232676    -0.56910
O436        O  0.45586104  0.75846178  0.34932441    -0.93600
O437        O  0.48890508  0.77785402  0.31572300    -0.92020
O438        O  0.40867287  0.72699510  0.24163935    -0.92380
O439        O  0.38259957  0.72852746  0.30212258    -0.91160
C440        C  0.47788506  0.77628840  0.34363716     1.17900
H441        H  0.46411741  0.70969660  0.23480148     0.33840
H442        H  0.41297988  0.67560036  0.34736943     0.44690
H443        H  0.52709462  0.73150329  0.34553553     0.38220
H444        H  0.51524296  0.61427190  0.30505422     0.34700
H445        H  0.36123869  0.67112606  0.27442629     0.26490
H446        H  0.47141250  0.58020043  0.38044261     0.32420
H447        H  0.56352264  0.63543943  0.38999129     0.38330
H448        H  0.38693245  0.72269700  0.23710147     0.32790
H449        H  0.47854761  0.76598073  0.23044575     0.31670
H450        H  0.56638481  0.73193593  0.28189897     0.33350
H451        H  0.60182235  0.67968228  0.34506435     0.32320
H452        H  0.38850145  0.73416777  0.32407682     0.36320
H453        H  0.42967187  0.73470767  0.41602897     0.29050
H454        H  0.51791794  0.61486654  0.20532607     0.33280
H455        H  0.58746138  0.62391833  0.33380250     0.36130
H456        H  0.45805762  0.77561661  0.25906378     0.28750
H457        H  0.46221638  0.74973063  0.41938485     0.41620
H458        H  0.39963972  0.60095926  0.32436235     0.31670
H459        H  0.37485077  0.65031989  0.30118569     0.39290
H460        H  0.58765178  0.70937306  0.33067119     0.31140
H461        H  0.49709052  0.57861248  0.35467648     0.31200
H462        H  0.53854198  0.60933084  0.23539310     0.31470
Zr463      Zr  0.52780924  0.92161294  0.25847786     2.17510
O464        O  0.49113691  0.94951759  0.22596479    -0.50890
O465        O  0.56591886  0.91624661  0.21686349    -0.74090
O466        O  0.54044889  0.97530556  0.25404735    -0.80880
O467        O  0.49227291  0.84171540  0.24219020    -0.82620
O468        O  0.56489876  0.99094581  0.29917917    -0.78250
O469        O  0.49075461  0.89103024  0.22532150    -0.89880
O470        O  0.60618891  0.92222161  0.24835314    -0.75840
O471        O  0.57532566  0.93045645  0.28579983    -0.85340
O472        O  0.55388762  0.87383603  0.25990220    -0.85020
O473        O  0.51778031  0.94222799  0.31119632    -0.71780
O474        O  0.49605119  0.88989440  0.28993910    -0.83920
Zr475      Zr  0.55675328  0.86907780  0.37016595     2.26420
Zr476      Zr  0.56605050  0.94929544  0.33829804     2.06270
Zr477      Zr  0.52172411  0.84187885  0.29058751     2.10050
Zr478      Zr  0.60085050  0.88295678  0.28744541     1.78760
O479        O  0.46840932  0.82829082  0.29969515    -0.92720
O480        O  0.65139119  0.90408745  0.29720378    -0.40530
O481        O  0.56865320  0.85068050  0.31777153    -0.77160
O482        O  0.59136003  0.90066459  0.34002853    -0.95850
O483        O  0.53276581  0.91785890  0.36978745    -0.89150
O484        O  0.50988693  0.86043273  0.34245068    -0.91990
C485        C  0.59475050  0.91756518  0.22118548     1.01760
C486        C  0.48236220  0.86255203  0.22364093     1.14690
C487        C  0.55429578  0.99532543  0.27096705     1.05470
O488        O  0.60854209  0.98502185  0.34074235    -0.94150
O489        O  0.60159246  0.94356806  0.38418572    -0.89890
O490        O  0.59089320  0.89674177  0.40453649    -0.83040
C491        C  0.60576354  0.92179418  0.40447788     1.12110
O492        O  0.44858659  0.94478112  0.32040055    -0.96120
Zr493      Zr  0.48580253  0.90918972  0.34241754     1.88940
O494        O  0.51505622  0.85708462  0.40684147    -0.72770
O495        O  0.53714509  0.98426697  0.37156736    -0.52030
O496        O  0.47928291  0.94826892  0.38302969    -0.96710
O497        O  0.43439455  0.88924352  0.33453849    -0.53930
O498        O  0.47141107  0.87895741  0.38884267    -0.73290
C499        C  0.48615082  0.86156090  0.40797980     0.99050
O500        O  0.57904962  0.83759289  0.41181913    -0.62110
O501        O  0.53851122  0.80077899  0.25556469    -0.56910
O502        O  0.57085217  0.81742402  0.36008723    -0.93600
O503        O  0.54462196  0.79943415  0.32000410    -0.92020
O504        O  0.61284721  0.84783978  0.24429643    -0.92380
O505        O  0.64011883  0.84670899  0.30319027    -0.91160
C506        C  0.54955543  0.80062625  0.34985834     1.17900
H507        H  0.55672803  0.86503629  0.23906385     0.33840
H508        H  0.61147695  0.90128316  0.34923438     0.44690
H509        H  0.49704898  0.84509457  0.35169888     0.38220
H510        H  0.50780835  0.96177995  0.30909080     0.34700
H511        H  0.66144739  0.90400574  0.27614570     0.26490
H512        H  0.55286544  0.99616690  0.38308959     0.32420
H513        H  0.46110617  0.94170876  0.39518538     0.38330
H514        H  0.63390482  0.85321731  0.23793096     0.32790
H515        H  0.53641560  0.80841209  0.23353585     0.31670
H516        H  0.45607612  0.84463381  0.28977770     0.33350
H517        H  0.42240317  0.89733116  0.35259820     0.32320
H518        H  0.63503465  0.84141468  0.32544128     0.36320
H519        H  0.60142700  0.84015075  0.41010070     0.29050
H520        H  0.50325475  0.95961537  0.20912340     0.33280
H521        H  0.43714834  0.95292798  0.33880490     0.36130
H522        H  0.56086196  0.79995594  0.25879714     0.28750
H523        H  0.57338296  0.84759213  0.43200398     0.41620
H524        H  0.62430113  0.97589378  0.32685676     0.31670
H525        H  0.64774534  0.92595005  0.30181334     0.39290
H526        H  0.43596778  0.86709131  0.33889329     0.31140
H527        H  0.52805365  0.99902022  0.35646493     0.31200
H528        H  0.48359813  0.96633490  0.23957856     0.31470
Zr529      Zr  0.64660672  0.26959439  0.38599626     2.17510
O530        O  0.67379114  0.30716066  0.35393688    -0.50890
O531        O  0.63913892  0.23198801  0.34396318    -0.74090
O532        O  0.70002681  0.25628250  0.37961998    -0.80880
O533        O  0.56701202  0.30869413  0.37540502    -0.82620
O534        O  0.71632444  0.22965024  0.42315967    -0.78250
O535        O  0.61424355  0.30569454  0.35324534    -0.89880
O536        O  0.64350329  0.19073422  0.37447050    -0.75840
O537        O  0.65396073  0.22069594  0.41103940    -0.85340
O538        O  0.59771150  0.24641200  0.38947263    -0.85020
O539        O  0.67008254  0.27663926  0.43802246    -0.71780
O540        O  0.61871727  0.30206684  0.42054158    -0.83920
Zr541      Zr  0.59840780  0.23840184  0.49958229     2.26420
Zr542      Zr  0.67574663  0.22710083  0.46289096     2.06270
Zr543      Zr  0.56954334  0.27891331  0.42362094     2.10050
Zr544      Zr  0.60514806  0.19779016  0.41411698     1.78760
O545        O  0.55930132  0.33164544  0.43870387    -0.92720
O546        O  0.62291314  0.14569831  0.42237382    -0.40530
O547        O  0.57592146  0.23009835  0.44786818    -0.77160
O548        O  0.62601580  0.20404105  0.46580174    -0.95850
O549        O  0.64806384  0.26059563  0.49731365    -0.89150
O550        O  0.59172215  0.28686059  0.47396483    -0.91990
C551        C  0.63968248  0.20298350  0.34755402     1.01760
C552        C  0.58632191  0.31587691  0.35393040     1.14690
C553        C  0.72024989  0.24162051  0.39553689     1.05470
O554        O  0.70965595  0.18317151  0.46153848    -0.94150
O555        O  0.66775027  0.19016196  0.00703306    -0.89890
O556        O  0.63204490  0.21374786  0.03694613    -0.83040
C557        C  0.65001095  0.19141529  0.03146180     1.12110
O558        O  0.67783914  0.34524168  0.45077684    -0.96120
Zr559      Zr  0.64095008  0.30909914  0.47245775     1.88940
O560        O  0.59006121  0.27923702  0.03875937    -0.72770
O561        O  0.71273744  0.25232378  0.49715572    -0.52030
O562        O  0.68160884  0.31239106  0.51176754    -0.96710
O563        O  0.62318393  0.36164408  0.46733587    -0.53930
O564        O  0.61239818  0.32273454  0.02034406    -0.73290
C565        C  0.59513952  0.30819258  0.03983395     0.99050
O566        O  0.57129036  0.19355420  0.51937686    -0.62110
O567        O  0.52520066  0.26489572  0.39200738    -0.56910
O568        O  0.54674553  0.24741116  0.51415424    -0.93600
O569        O  0.53849154  0.25107859  0.46279799    -0.92020
O570        O  0.56947669  0.18936112  0.37049706    -0.92380
O571        O  0.56660949  0.16001926  0.42802092    -0.91160
C572        C  0.53236830  0.25928513  0.49128116     1.17900
H573        H  0.58787740  0.24492928  0.36897087     0.33840
H574        H  0.62574138  0.18370597  0.47459275     0.44690
H575        H  0.57732591  0.29988617  0.48453356     0.38220
H576        H  0.68998801  0.28573223  0.43535607     0.34700
H577        H  0.62198512  0.13612924  0.40106681     0.26490
H578        H  0.72453788  0.23540517  0.50674782     0.32420
H579        H  0.67601128  0.33003097  0.52526840     0.38330
H580        H  0.57418935  0.16856449  0.36269173     0.32790
H581        H  0.53070946  0.26787622  0.36942624     0.31670
H582        H  0.57185495  0.34436222  0.42432294     0.33350
H583        H  0.63261723  0.37267346  0.48539941     0.32320
H584        H  0.54982302  0.17201072  0.43755106     0.36320
H585        H  0.55671892  0.18825130  0.50224017     0.29050
H586        H  0.68322295  0.29545555  0.33638154     0.33280
H587        H  0.68650264  0.35619002  0.46929353     0.36130
H588        H  0.52476686  0.24237141  0.39406120     0.28750
H589        H  0.58631543  0.17672747  0.51895619     0.41620
H590        H  0.69930688  0.16842750  0.44729772     0.31670
H591        H  0.64498157  0.14782447  0.42685152     0.39290
H592        H  0.60123723  0.36094830  0.47270113     0.31140
H593        H  0.72717451  0.26226489  0.48232633     0.31200
H594        H  0.69107960  0.31409400  0.36727871     0.31470
Zr595      Zr  0.37738893  0.30518015  0.37947755     2.17510
O596        O  0.34804336  0.26795018  0.34900551    -0.50890
O597        O  0.38024058  0.34349415  0.33769483    -0.74090
O598        O  0.32387774  0.31819229  0.37719323    -0.80880
O599        O  0.45642336  0.26788382  0.36167315    -0.82620
O600        O  0.30995242  0.34307324  0.42271512    -0.78250
O601        O  0.40732922  0.26915614  0.34424996    -0.89880
O602        O  0.37420355  0.38225426  0.37082712    -0.75840
O603        O  0.36918552  0.35262097  0.40753350    -0.85340
O604        O  0.42482050  0.33191864  0.37924220    -0.85020
O605        O  0.35844339  0.29569580  0.43301744    -0.71780
O606        O  0.41007349  0.27267622  0.40924042    -0.83920
Zr607      Zr  0.43398813  0.33510025  0.48884508     2.26420
Zr608      Zr  0.35235771  0.34389376  0.46083676     2.06270
Zr609      Zr  0.45768699  0.29915644  0.40835976     2.10050
Zr610      Zr  0.41608772  0.37895781  0.40709342     1.78760
O611        O  0.47701734  0.24935582  0.42466546    -0.92720
O612        O  0.39546563  0.42997664  0.41513221    -0.40530
O613        O  0.44918580  0.34637563  0.43538614    -0.77160
O614        O  0.40056364  0.36959680  0.46058759    -0.95850
O615        O  0.38535758  0.31074753  0.49028569    -0.89150
O616        O  0.44095635  0.28801955  0.46136947    -0.91990
C617        C  0.37858748  0.37215769  0.34309217     1.01760
C618        C  0.43542175  0.25958702  0.34255850     1.14690
C619        C  0.30467121  0.33238250  0.39470024     1.05470
O620        O  0.31786076  0.38726370  0.46423429    -0.94150
O621        O  0.36009791  0.37797802  0.00812114    -0.89890
O622        O  0.40899625  0.37000531  0.02395915    -0.83040
C623        C  0.38324143  0.38315966  0.02657027     1.12110
O624        O  0.35655805  0.22590734  0.44183104    -0.96120
Zr625      Zr  0.39237254  0.26364315  0.46264627     1.88940
O626        O  0.44669824  0.29309850  0.02566079    -0.72770
O627        O  0.31776196  0.31498700  0.49457425    -0.52030
O628        O  0.35321560  0.25632732  0.50295991    -0.96710
O629        O  0.41391442  0.21284120  0.45507867    -0.53930
O630        O  0.42169572  0.25022290  0.00956439    -0.73290
C631        C  0.44021061  0.26444857  0.02790417     0.99050
O632        O  0.47076490  0.35786513  0.52573999    -0.62110
O633        O  0.49571497  0.31837839  0.37101314    -0.56910
O634        O  0.48001955  0.34874543  0.46232284    -0.93600
O635        O  0.50389261  0.31500788  0.43372149    -0.92020
O636        O  0.44977335  0.39121055  0.36287435    -0.92380
O637        O  0.45190425  0.41832058  0.42391160    -0.91160
C638        C  0.50028618  0.32839422  0.46015967     1.17900
H639        H  0.43264646  0.33493736  0.35803109     0.33840
H640        H  0.39993848  0.38975842  0.46975959     0.44690
H641        H  0.45659754  0.27565743  0.47095755     0.38220
H642        H  0.33886318  0.28565461  0.43165062     0.34700
H643        H  0.39463791  0.43903124  0.39358512     0.26490
H644        H  0.30578647  0.33075101  0.50588398     0.32420
H645        H  0.36009885  0.23841445  0.51539061     0.38330
H646        H  0.44663575  0.41329347  0.35905102     0.32790
H647        H  0.48602989  0.31755054  0.34976928     0.31670
H648        H  0.46467866  0.23428011  0.41271980     0.33350
H649        H  0.40622450  0.20061890  0.47318127     0.32320
H650        H  0.45654645  0.41327494  0.44634014     0.36320
H651        H  0.47613065  0.37784364  0.51623923     0.29050
H652        H  0.33736914  0.27982433  0.33234802     0.33280
H653        H  0.35099930  0.21273696  0.46005142     0.36130
H654        H  0.49729209  0.34048266  0.37571867     0.28750
H655        H  0.45975284  0.36332472  0.54536644     0.41620
H656        H  0.32711871  0.40292009  0.45026942     0.31670
H657        H  0.37386449  0.42656866  0.42094262     0.39290
H658        H  0.43596324  0.21521206  0.45945944     0.31140
H659        H  0.30306129  0.30554503  0.47963084     0.31200
H660        H  0.33176616  0.26077195  0.36349102     0.31470
Zr661      Zr  0.52928586  0.15334712  0.24153328     2.17510
O662        O  0.49261712  0.12567673  0.27424864    -0.50890
O663        O  0.56729429  0.15937377  0.28329197    -0.74090
O664        O  0.54166079  0.09964943  0.24632383    -0.80880
O665        O  0.49283356  0.23297702  0.25656086    -0.82620
O666        O  0.56604938  0.08359820  0.20139776    -0.78250
O667        O  0.49215600  0.18395233  0.27437413    -0.89880
O668        O  0.60782253  0.15364314  0.25221869    -0.75840
O669        O  0.57702459  0.14469296  0.21474249    -0.85340
O670        O  0.55492401  0.20136383  0.23975245    -0.85020
O671        O  0.51966010  0.13217285  0.18894414    -0.71780
O672        O  0.49745064  0.18439365  0.20943551    -0.83920
Zr673      Zr  0.55840312  0.20509506  0.12952611     2.26420
Zr674      Zr  0.56811961  0.12527847  0.16235238     2.06270
Zr675      Zr  0.52265948  0.23270743  0.20846478     2.10050
Zr676      Zr  0.60214056  0.19247704  0.21274003     1.78760
O677        O  0.46938898  0.24567995  0.19814628    -0.92720
O678        O  0.65291420  0.17193289  0.20333919    -0.40530
O679        O  0.56982423  0.22409391  0.18181982    -0.77160
O680        O  0.59307265  0.17417767  0.16027376    -0.95850
O681        O  0.53479824  0.15606660  0.13017730    -0.89150
O682        O  0.51129940  0.21350857  0.15673874    -0.91990
C683        C  0.59616229  0.15831424  0.27924376     1.01760
C684        C  0.48336445  0.21230928  0.27556271     1.14690
C685        C  0.55526357  0.07941676  0.22954450     1.05470
O686        O  0.61128438  0.09040752  0.16150341    -0.94150
O687        O  0.60383495  0.13084882  0.11674415    -0.89890
O688        O  0.59199307  0.17688152  0.09520925    -0.83040
C689        C  0.60745795  0.15224217  0.09592271     1.12110
O690        O  0.45057813  0.12865266  0.17895152    -0.96120
Zr691      Zr  0.48762391  0.16451430  0.15705037     1.88940
O692        O  0.51683471  0.21636805  0.09238290    -0.72770
O693        O  0.54020128  0.08970026  0.12870918    -0.52030
O694        O  0.48189363  0.12506733  0.11666321    -0.96710
O695        O  0.43593565  0.18378549  0.16426066    -0.53930
O696        O  0.47323295  0.19433491  0.11031729    -0.73290
C697        C  0.48794599  0.21172220  0.09115191     0.99050
O698        O  0.58242799  0.23626874  0.08872187    -0.62110
O699        O  0.53859750  0.27411417  0.24360966    -0.56910
O700        O  0.57151472  0.25754050  0.13694112    -0.93600
O701        O  0.54728193  0.27422931  0.17886325    -0.92020
O702        O  0.61366183  0.22799910  0.25572544    -0.92380
O703        O  0.64107336  0.22916850  0.19707348    -0.91160
C704        C  0.55048333  0.27361800  0.14872408     1.17900
H705        H  0.55758830  0.21037804  0.26052607     0.33840
H706        H  0.61318300  0.17367498  0.15109338     0.44690
H707        H  0.49834954  0.22855512  0.14724941     0.38220
H708        H  0.50978952  0.11256125  0.19115165     0.34700
H709        H  0.66296332  0.17234547  0.22442422     0.26490
H710        H  0.55621248  0.07698033  0.11876127     0.32420
H711        H  0.46380107  0.13134105  0.10418632     0.38330
H712        H  0.63467637  0.22277881  0.26239441     0.32790
H713        H  0.53598505  0.26675943  0.26567433     0.31670
H714        H  0.45703267  0.22963024  0.20855625     0.33350
H715        H  0.42417602  0.17544179  0.14611545     0.32320
H716        H  0.63610101  0.23418306  0.17471417     0.36320
H717        H  0.60466949  0.23285291  0.09070436     0.29050
H718        H  0.50474523  0.11565202  0.29114359     0.33280
H719        H  0.43952117  0.12005951  0.16047057     0.36130
H720        H  0.56102383  0.27483565  0.24102795     0.28750
H721        H  0.57653767  0.22679745  0.06831178     0.41620
H722        H  0.62628488  0.09965453  0.17625527     0.31670
H723        H  0.64951528  0.14998159  0.19894117     0.39290
H724        H  0.43728457  0.20593518  0.15980142     0.31140
H725        H  0.52983399  0.07578243  0.14377446     0.31200
H726        H  0.48495596  0.10879961  0.26074530     0.31470
Zr727      Zr  0.49472239  0.42105013  0.24664081     2.17510
O728        O  0.53074701  0.44965357  0.27936085    -0.50890
O729        O  0.45489977  0.41755046  0.28671222    -0.74090
O730        O  0.48250766  0.47493468  0.24887782    -0.80880
O731        O  0.52904754  0.34092665  0.26628943    -0.82620
O732        O  0.45950956  0.48952279  0.20251992    -0.78250
O733        O  0.52984550  0.39048758  0.28240467    -0.89880
O734        O  0.41710781  0.42303989  0.25222603    -0.75840
O735        O  0.44808507  0.42895324  0.21723093    -0.85340
O736        O  0.46844517  0.37329382  0.24542684    -0.85020
O737        O  0.50584674  0.44070498  0.19371324    -0.71780
O738        O  0.52803426  0.38916292  0.21709930    -0.83920
Zr739      Zr  0.46902971  0.36568078  0.13481049     2.26420
Zr740      Zr  0.45846525  0.44675803  0.16462514     2.06270
Zr741      Zr  0.50195182  0.34131587  0.21662534     2.10050
Zr742      Zr  0.42251761  0.38145270  0.21579996     1.78760
O743        O  0.55477965  0.32561932  0.20979521    -0.92720
O744        O  0.37176664  0.40174830  0.20559528    -0.40530
O745        O  0.45580960  0.34865452  0.18746208    -0.77160
O746        O  0.43354389  0.39791187  0.16312583    -0.95850
O747        O  0.49273620  0.41474857  0.13515126    -0.89150
O748        O  0.51494300  0.35872381  0.16451247    -0.91990
C749        C  0.42643931  0.41887689  0.28030835     1.01760
C750        C  0.53806990  0.36198822  0.28505303     1.14690
C751        C  0.46945219  0.49460188  0.23089250     1.05470
O752        O  0.41518648  0.48136640  0.16138823    -0.94150
O753        O  0.42428394  0.43963033  0.11765668    -0.89890
O754        O  0.43466605  0.39196365  0.09913922    -0.83040
C755        C  0.42013046  0.41724386  0.09800813     1.12110
O756        O  0.57529852  0.44458105  0.18536710    -0.96120
Zr757      Zr  0.53891734  0.40753242  0.16431703     1.88940
O758        O  0.51253259  0.35376106  0.09966768    -0.72770
O759        O  0.48732597  0.48136582  0.13083313    -0.52030
O760        O  0.54587144  0.44581367  0.12293751    -0.96710
O761        O  0.58998043  0.38772595  0.17434870    -0.53930
O762        O  0.55503985  0.37692884  0.11916152    -0.73290
C763        C  0.54147445  0.35895453  0.09971324     0.99050
O764        O  0.44702051  0.32865833  0.09759584    -0.62110
O765        O  0.48021346  0.30064607  0.24910203    -0.56910
O766        O  0.45702317  0.31590269  0.15351291    -0.93600
O767        O  0.49146559  0.29662406  0.18570252    -0.92020
O768        O  0.40963589  0.34728507  0.25949953    -0.92380
O769        O  0.38343592  0.34548336  0.19867410    -0.91160
C770        C  0.47914191  0.29800145  0.15834258     1.17900
H771        H  0.46494977  0.36507109  0.26640649     0.33840
H772        H  0.41361313  0.39821132  0.15347413     0.44690
H773        H  0.52789992  0.34301069  0.15594238     0.38220
H774        H  0.51567531  0.46037103  0.19563674     0.34700
H775        H  0.36195842  0.40266150  0.22675924     0.26490
H776        H  0.47161954  0.49402501  0.12025206     0.32420
H777        H  0.56405896  0.43898450  0.11098471     0.38330
H778        H  0.38777380  0.35115386  0.26370104     0.32790
H779        H  0.47864254  0.30915184  0.27083552     0.31670
H780        H  0.56730698  0.34208075  0.21928824     0.33350
H781        H  0.60248943  0.39509564  0.15632744     0.32320
H782        H  0.38940552  0.33983965  0.17676063     0.36320
H783        H  0.43060680  0.33861477  0.08526212     0.29050
H784        H  0.51825858  0.46042130  0.29542288     0.33280
H785        H  0.58811630  0.45081199  0.16713009     0.36130
H786        H  0.45879881  0.29893278  0.24183303     0.28750
H787        H  0.46322315  0.32384194  0.08206283     0.41620
H788        H  0.39991041  0.47254363  0.17606915     0.31670
H789        H  0.37524127  0.42336936  0.19974648     0.39290
H790        H  0.58834449  0.36543270  0.17084272     0.31140
H791        H  0.49755296  0.49549780  0.14581939     0.31200
H792        H  0.53890370  0.46593394  0.26541256     0.31470
Zr793      Zr  0.14661193  0.30780954  0.37250240     2.17510
O794        O  0.17569321  0.27085479  0.40351117    -0.50890
O795        O  0.14396864  0.34667916  0.41379771    -0.74090
O796        O  0.20032775  0.32015206  0.37416380    -0.80880
O797        O  0.06737182  0.27109846  0.39127340    -0.82620
O798        O  0.21461523  0.34378833  0.32803315    -0.78250
O799        O  0.11654438  0.27242619  0.40843700    -0.89880
O800        O  0.15014940  0.38478558  0.37997263    -0.75840
O801        O  0.15505535  0.35487521  0.34376233    -0.85340
O802        O  0.09931950  0.33469228  0.37242560    -0.85020
O803        O  0.16532732  0.29760048  0.31900684    -0.71780
O804        O  0.11378592  0.27500387  0.34316066    -0.83920
Zr805      Zr  0.09008643  0.33628843  0.26252790     2.26420
Zr806      Zr  0.17173104  0.34541640  0.29051962     2.06270
Zr807      Zr  0.06628892  0.30159292  0.34385429     2.10050
Zr808      Zr  0.10822462  0.38129146  0.34380508     1.78760
O809        O  0.04741216  0.25133681  0.32831417    -0.92720
O810        O  0.12900293  0.43229728  0.33577234    -0.40530
O811        O  0.07513823  0.34830357  0.31595027    -0.77160
O812        O  0.12359005  0.37109970  0.29043753    -0.95850
O813        O  0.13864711  0.31191528  0.26140444    -0.89150
O814        O  0.08283430  0.28976196  0.29097532    -0.91990
C815        C  0.14546907  0.37525133  0.40785857     1.01760
C816        C  0.08839431  0.26300321  0.41047645     1.14690
C817        C  0.21980384  0.33346355  0.35620921     1.05470
O818        O  0.20585232  0.38920396  0.28766447    -0.94150
O819        O  0.16405999  0.37929121  0.24308571    -0.89890
O820        O  0.11523647  0.37100717  0.22702380    -0.83040
C821        C  0.14098530  0.38432904  0.22450979     1.12110
O822        O  0.16771495  0.22802446  0.31023876    -0.96120
Zr823      Zr  0.13128848  0.26524748  0.28976905     1.88940
O824        O  0.07630913  0.29339905  0.22684294    -0.72770
O825        O  0.20622654  0.31684793  0.25642213    -0.52030
O826        O  0.16957219  0.25826350  0.24850274    -0.96710
O827        O  0.11074210  0.21414852  0.29842399    -0.53930
O828        O  0.10076961  0.25065479  0.24399521    -0.73290
C829        C  0.08213790  0.26452347  0.22552160     0.99050
O830        O  0.05380060  0.35843585  0.22485789    -0.62110
O831        O  0.02807411  0.32113329  0.38077368    -0.56910
O832        O  0.04435973  0.35098875  0.28896249    -0.93600
O833        O  0.02030830  0.31768036  0.31807099    -0.92020
O834        O  0.07405702  0.39387145  0.38750144    -0.92380
O835        O  0.07305722  0.42076159  0.32601728    -0.91160
C836        C  0.02392440  0.33079606  0.29145955     1.17900
H837        H  0.09152113  0.33801448  0.39359677     0.33840
H838        H  0.12422338  0.39117341  0.28106725     0.44690
H839        H  0.06697440  0.27736343  0.28181717     0.38220
H840        H  0.18484290  0.28749260  0.32045417     0.34700
H841        H  0.12987719  0.44135727  0.35731956     0.26490
H842        H  0.21958604  0.33260639  0.24688557     0.32420
H843        H  0.16253244  0.24027477  0.23625614     0.38330
H844        H  0.07676160  0.41609788  0.39079606     0.32790
H845        H  0.03775501  0.32079772  0.40203368     0.31670
H846        H  0.05969850  0.23658723  0.34070686     0.33350
H847        H  0.11801505  0.20192436  0.28014291     0.32320
H848        H  0.06829211  0.41524701  0.30373267     0.36320
H849        H  0.05000319  0.37936099  0.23284117     0.29050
H850        H  0.18667489  0.28291929  0.41982348     0.33280
H851        H  0.17366120  0.21527424  0.29183467     0.36130
H852        H  0.02634177  0.34313403  0.37564754     0.28750
H853        H  0.06469922  0.36160706  0.20461872     0.41620
H854        H  0.19726723  0.40404546  0.30297438     0.31670
H855        H  0.15058703  0.42888325  0.32993307     0.39290
H856        H  0.08853072  0.21611473  0.29482366     0.31140
H857        H  0.21965433  0.30563787  0.27131374     0.31200
H858        H  0.19174209  0.26317965  0.38904186     0.31470
Zr859      Zr  0.87784442  0.27066215  0.36464273     2.17510
O860        O  0.85019391  0.30788430  0.39663335    -0.50890
O861        O  0.88594967  0.23339205  0.40689314    -0.74090
O862        O  0.82453006  0.25678397  0.37089564    -0.80880
O863        O  0.95688371  0.31071839  0.37569936    -0.82620
O864        O  0.80846624  0.23023524  0.32719693    -0.78250
O865        O  0.90952520  0.30729079  0.39747803    -0.89880
O866        O  0.88187436  0.19185848  0.37676126    -0.75840
O867        O  0.87091327  0.22164058  0.33970594    -0.85340
O868        O  0.92685846  0.24778135  0.36151075    -0.85020
O869        O  0.85477573  0.27763265  0.31240766    -0.71780
O870        O  0.90571409  0.30329502  0.33015306    -0.83920
Zr871      Zr  0.92686532  0.23961385  0.25156951     2.26420
Zr872      Zr  0.84931373  0.22795860  0.28779590     2.06270
Zr873      Zr  0.95502553  0.28055729  0.32765896     2.10050
Zr874      Zr  0.91987480  0.19904547  0.33682114     1.78760
O875        O  0.96476600  0.33336088  0.31240666    -0.92720
O876        O  0.90233620  0.14678557  0.32888964    -0.40530
O877        O  0.94909093  0.23163918  0.30340160    -0.77160
O878        O  0.89912656  0.20503857  0.28505197    -0.95850
O879        O  0.87711406  0.26146053  0.25335518    -0.89150
O880        O  0.93334216  0.28817768  0.27701699    -0.91990
C881        C  0.88595719  0.20435551  0.40351239     1.01760
C882        C  0.93734408  0.31778446  0.39698010     1.14690
C883        C  0.80441179  0.24205571  0.35485924     1.05470
O884        O  0.81586116  0.18360314  0.28927508    -0.94150
O885        O  0.85729690  0.19118229  0.24371772    -0.89890
O886        O  0.89280507  0.21543854  0.21423518    -0.83040
C887        C  0.87504892  0.19287635  0.21937822     1.12110
O888        O  0.84700469  0.34630900  0.29896908    -0.96120
Zr889      Zr  0.88406042  0.31009117  0.27789100     1.88940
O890        O  0.93550606  0.27959663  0.21178955    -0.72770
O891        O  0.81219209  0.25273757  0.25341004    -0.52030
O892        O  0.84375481  0.31270591  0.23814386    -0.96710
O893        O  0.90136597  0.36286810  0.28254511    -0.53930
O894        O  0.91351313  0.32326113  0.23018728    -0.73290
C895        C  0.93082116  0.30858867  0.21080420     0.99050
O896        O  0.95472319  0.19588967  0.23085527    -0.62110
O897        O  0.99903654  0.26719085  0.36001696    -0.56910
O898        O  0.97877374  0.24864403  0.23777139    -0.93600
O899        O  0.98672430  0.25274233  0.28913635    -0.92020
O900        O  0.95583561  0.19072018  0.38017222    -0.92380
O901        O  0.95876401  0.16201361  0.32214812    -0.91160
C902        C  0.99289233  0.26085200  0.26064649     1.17900
H903        H  0.93664899  0.24637558  0.38203884     0.33840
H904        H  0.89945476  0.18472274  0.27619978     0.44690
H905        H  0.94781814  0.30118981  0.26652621     0.38220
H906        H  0.83483498  0.28663829  0.31493948     0.34700
H907        H  0.90363497  0.13725332  0.35018845     0.26490
H908        H  0.80011203  0.23571146  0.24435775     0.32420
H909        H  0.84956397  0.33006398  0.22433635     0.38330
H910        H  0.95161134  0.16967337  0.38757002     0.32790
H911        H  0.99334674  0.27050087  0.38249634     0.31670
H912        H  0.95189618  0.34597630  0.32655416     0.33350
H913        H  0.89209999  0.37355505  0.26418464     0.32320
H914        H  0.96188336  0.16526639  0.29909160     0.36320
H915        H  0.94021751  0.17857664  0.23149055     0.29050
H916        H  0.84084549  0.29606927  0.41416967     0.33280
H917        H  0.83802991  0.35664349  0.28024898     0.36130
H918        H  0.99946806  0.24463715  0.35835172     0.28750
H919        H  0.95741978  0.20045962  0.20803018     0.41620
H920        H  0.82634777  0.16904503  0.30358164     0.31670
H921        H  0.88019597  0.14870657  0.32474307     0.39290
H922        H  0.92338809  0.36231849  0.27751258     0.31140
H923        H  0.79802525  0.26311370  0.26817849     0.31200
H924        H  0.83286704  0.31460529  0.38325336     0.31470
Zr925      Zr  0.99653517  0.15444507  0.01152158     2.17510
O926        O  0.03429441  0.12745670  0.97964910    -0.50890
O927        O  0.95926826  0.16156534  0.46909636    -0.74090
O928        O  0.98378231  0.10085262  0.00527815    -0.80880
O929        O  0.03430233  0.23455569  0.50013704    -0.82620
O930        O  0.95757630  0.08434211  0.04893337    -0.78250
O931        O  0.03266310  0.18676537  0.47892670    -0.89880
O932        O  0.91789264  0.15626172  0.49907149    -0.75840
O933        O  0.94783124  0.14620821  0.03646291    -0.85340
O934        O  0.97224104  0.20283913  0.01436429    -0.85020
O935        O  0.00418607  0.13183247  0.06387332    -0.71780
O936        O  0.02825067  0.18344692  0.04591533    -0.83920
Zr937      Zr  0.96411993  0.20322531  0.12438336     2.26420
Zr938      Zr  0.95479085  0.12509069  0.08848752     2.06270
Zr939      Zr  0.00416025  0.23213505  0.04811020     2.10050
Zr940      Zr  0.92381023  0.19454348  0.03907219     1.78760
O941        O  0.05687847  0.24196580  0.06352815    -0.92720
O942        O  0.87221792  0.17532167  0.04687128    -0.40530
O943        O  0.95555692  0.22481235  0.07237354    -0.77160
O944        O  0.93040823  0.17426644  0.09097911    -0.95850
O945        O  0.98741997  0.15406799  0.12285952    -0.89150
O946        O  0.01240070  0.21108775  0.09897911    -0.91990
C947        C  0.93028477  0.16078350  0.47237942     1.01760
C948        C  0.04226223  0.21493992  0.47922820     1.14690
C949        C  0.96939113  0.08050485  0.02126385     1.05470
O950        O  0.91166914  0.09007577  0.08760524    -0.94150
O951        O  0.91791923  0.13218062  0.13253497    -0.89890
O952        O  0.94100918  0.16865886  0.16188727    -0.83040
C953        C  0.91908162  0.15010006  0.15682261     1.12110
O954        O  0.07293869  0.12636252  0.07706615    -0.96120
Zr955      Zr  0.03572024  0.16233769  0.09829227     1.88940
O956        O  0.00394802  0.21348501  0.16400641    -0.72770
O957        O  0.98095166  0.08874782  0.12268023    -0.52030
O958        O  0.03955917  0.12215868  0.13807951    -0.96710
O959        O  0.08798402  0.18099145  0.09383695    -0.53930
O960        O  0.04808181  0.19234333  0.14593268    -0.73290
C961        C  0.03299351  0.20943608  0.16518104     0.99050
O962        O  0.91976252  0.22966983  0.14549136    -0.62110
O963        O  0.99004343  0.27579979  0.01552070    -0.56910
O964        O  0.97006836  0.25583586  0.13745881    -0.93600
O965        O  0.97486312  0.26313531  0.08611477    -0.92020
O966        O  0.91444406  0.23034359  0.99580011    -0.92380
O967        O  0.88568274  0.23236883  0.05372598    -0.91160
C968        C  0.98237887  0.26989211  0.11465649     1.17900
H969        H  0.97055655  0.21253207  0.99381238     0.33840
H970        H  0.91013139  0.17401722  0.09982155     0.44690
H971        H  0.02492672  0.22601750  0.10945733     0.38220
H972        H  0.01372772  0.11210579  0.06142427     0.34700
H973        H  0.86268633  0.17628403  0.02554758     0.26490
H974        H  0.96439332  0.07629624  0.13205163     0.32420
H975        H  0.05682885  0.12844208  0.15178433     0.38330
H976        H  0.89353134  0.22556224  0.98841675     0.32790
H977        H  0.99341702  0.27003685  0.99306627     0.31670
H978        H  0.06961024  0.22973782  0.04888501     0.33350
H979        H  0.09892154  0.17175244  0.11205098     0.32320
H980        H  0.88899935  0.23578367  0.07673720     0.36320
H981        H  0.90282288  0.21475610  0.14445317     0.29050
H982        H  0.02271457  0.11783395  0.46207507     0.33280
H983        H  0.08320141  0.11726735  0.09576488     0.36130
H984        H  0.96751958  0.27584247  0.51714123     0.28750
H985        H  0.92422541  0.23202697  0.16838774     0.41620
H986        H  0.89658289  0.10004919  0.07350135     0.31670
H987        H  0.87484541  0.15322625  0.05102797     0.39290
H988        H  0.08696154  0.20296982  0.09918072     0.31140
H989        H  0.99142535  0.07472040  0.10782613     0.31200
H990        H  0.04133525  0.11025998  0.99304910     0.31470
Zr991      Zr  0.02891323  0.42298461  0.00427956     2.17510
O992        O  0.99177746  0.45185121  0.97330915    -0.50890
O993        O  0.06803299  0.42058448  0.46332071    -0.74090
O994        O  0.04125485  0.47666974  0.00230778    -0.80880
O995        O  0.99270470  0.34339363  0.48567821    -0.82620
O996        O  0.06510853  0.49104655  0.04832962    -0.78250
O997        O  0.99405109  0.39248519  0.46811399    -0.89880
O998        O  0.10591840  0.42729572  0.49735911    -0.75840
O999        O  0.07569912  0.43194795  0.03328228    -0.85340
O1000       O  0.05614266  0.37590396  0.00462080    -0.85020
O1001       O  0.01841068  0.44191299  0.05766027    -0.71780
O1002       O  0.99628747  0.39002629  0.03352844    -0.83920
Zr1003     Zr  0.05744810  0.36697964  0.11484112     2.26420
Zr1004     Zr  0.06595988  0.44866266  0.08644851     2.06270
Zr1005     Zr  0.02325437  0.34271475  0.03311343     2.10210
Zr1006     Zr  0.10247668  0.38533269  0.03350664     1.78760
O1007       O  0.97350533  0.32288922  0.04882180    -0.92720
O1008       O  0.15296754  0.40677759  0.04271555    -0.40530
O1009       O  0.06951646  0.35237439  0.06133887    -0.77160
O1010       O  0.09203495  0.40063796  0.08687792    -0.95850
O1011       O  0.03268172  0.41544149  0.11555036    -0.89150
O1012       O  0.01121076  0.35937457  0.08592459    -0.91990
C1013       C  0.09651962  0.42260459  0.46940267     1.01760
C1014       C  0.98469622  0.36425938  0.46623088     1.14690
C1015       C  0.05482610  0.49611970  0.02012139     1.05470
O1016       O  0.10840624  0.48430104  0.09062432    -0.94150
O1017       O  0.10024772  0.44143320  0.13352655    -0.89890
O1018       O  0.09146189  0.39300276  0.15075196    -0.83040
C1019       C  0.10511192  0.41871120  0.15260621     1.12110
O1020       O  0.94909278  0.44415560  0.06633517    -0.96120
Zr1021     Zr  0.98627603  0.40769629  0.08682259     1.88940
O1022       O  0.01425674  0.35326928  0.15010556    -0.72770
O1023       O  0.03630543  0.48268918  0.12006512    -0.52030
O1024       O  0.97876021  0.44584188  0.12823346    -0.96710
O1025       O  0.93549518  0.38675255  0.07749703    -0.53930
O1026       O  0.97143289  0.37709465  0.13233179    -0.73290
C1027       C  0.98533909  0.35872271  0.15103970     0.99050
O1028       O  0.07958954  0.32918127  0.15109341    -0.62110
O1029       O  0.04354361  0.30490419  0.99608943    -0.56910
O1030       O  0.07316824  0.32131814  0.08869992    -0.93600
O1031       O  0.04090850  0.29704602  0.05844419    -0.92020
O1032       O  0.11568412  0.35151160  0.98964330    -0.92380
O1033       O  0.14184015  0.34978378  0.05068459    -0.91160
C1034       C  0.05317647  0.30075370  0.08549304     1.17900
H1035       H  0.05960840  0.36804897  0.98348718     0.33840
H1036       H  0.11204984  0.40134553  0.09632926     0.44690
H1037       H  0.99886499  0.34346565  0.09502103     0.38220
H1038       H  0.00823490  0.46140791  0.05609869     0.34700
H1039       H  0.16240473  0.40777230  0.02137308     0.26490
H1040       H  0.05176875  0.49481428  0.13171182     0.32420
H1041       H  0.96069480  0.43869353  0.14020995     0.38330
H1042       H  0.13773880  0.35494150  0.98612756     0.32790
H1043       H  0.04249006  0.31438403  0.97476383     0.31670
H1044       H  0.95852025  0.33477344  0.03631518     0.33350
H1045       H  0.92304864  0.39394703  0.09563098     0.32320
H1046       H  0.13672226  0.34520838  0.07309824     0.36320
H1047       H  0.09561066  0.33921670  0.16394973     0.29050
H1048       H  0.00371060  0.46277041  0.45688368     0.33280
H1049       H  0.93602136  0.44970992  0.08460409     0.36130
H1050       H  0.06564311  0.30401228  0.50084664     0.28750
H1051       H  0.06334826  0.32359196  0.16631419     0.41620
H1052       H  0.12440906  0.47548806  0.07682352     0.31670
H1053       H  0.14916397  0.42835171  0.04850157     0.39290
H1054       H  0.93757888  0.36452022  0.08108829     0.31140
H1055       H  0.02690681  0.49738766  0.10510965     0.31200
H1056       H  0.98418729  0.46800391  0.98773910     0.31470
C1057       C  0.03474291  0.29277652  0.11143904    -0.12830
C1058       C  0.01044034  0.28447029  0.12022466    -0.14390
C1059       C  0.87883213  0.16744347  0.19775215    -0.12830
C1060       C  0.89363638  0.15308390  0.17848682    -0.14390
C1061       C  0.91114033  0.17106476  0.44738777    -0.12830
C1062       C  0.89655761  0.18540042  0.42851931    -0.14390
C1063       C  0.94904657  0.32636863  0.18887809    -0.12830
C1064       C  0.96634627  0.34140252  0.17266770    -0.14390
C1065       C  0.94884371  0.33870907  0.42175926    -0.12830
C1066       C  0.96387505  0.35371437  0.44095054    -0.14390
C1067       C  0.14130444  0.40718969  0.19950526    -0.12830
C1068       C  0.12835159  0.41944476  0.17725509    -0.14390
C1069       C  0.13407137  0.39658888  0.43027712    -0.12830
C1070       C  0.11815049  0.41197694  0.44692276    -0.14390
C1071       C  0.07811427  0.24196189  0.43564026    -0.12830
C1072       C  0.06320736  0.22672932  0.45469181    -0.14390
C1073       C  0.05029076  0.22805917  0.18724677    -0.12830
C1074       C  0.06502593  0.24549340  0.20366867    -0.14390
C1075       C  0.01571822  0.31326360  0.26481975    -0.12830
C1076       C  0.00730074  0.28912960  0.25544508    -0.14390
C1077       C  0.49812156  0.28815971  0.13303274    -0.12830
C1078       C  0.52417097  0.28060572  0.13022760    -0.14390
C1079       C  0.24994809  0.33646257  0.36909414    -0.12830
C1080       C  0.27474696  0.33611027  0.38148289    -0.14390
C1081       C  0.39650727  0.41785170  0.07375327    -0.12830
C1082       C  0.38306023  0.40589958  0.05163926    -0.14390
C1083       C  0.38924941  0.39317625  0.31999212    -0.12830
C1084       C  0.40482991  0.40844994  0.30289100    -0.14390
C1085       C  0.45631869  0.24613527  0.05101015    -0.12830
C1086       C  0.47057443  0.22950327  0.06859640    -0.14390
C1087       C  0.46136202  0.22309830  0.29942670    -0.12830
C1088       C  0.44578437  0.23819564  0.31790087    -0.14390
C1089       C  0.77473906  0.23921796  0.36899212    -0.12830
C1090       C  0.74991063  0.23908065  0.38132801    -0.14390
C1091       C  0.64653891  0.16570816  0.05291091    -0.12830
C1092       C  0.63196020  0.15192038  0.07288401    -0.14390
C1093       C  0.61585701  0.16883619  0.30365670    -0.12830
C1094       C  0.63010623  0.18360246  0.32245492    -0.14390
C1095       C  0.57750573  0.32620339  0.06203356    -0.12830
C1096       C  0.56067372  0.34165782  0.07830468    -0.14390
C1097       C  0.57440186  0.33659176  0.32919719    -0.12830
C1098       C  0.55904040  0.35145062  0.31019274    -0.14390
C1099       C  0.51736823  0.28724101  0.49643857    -0.12830
C1100       C  0.50851030  0.31117993  0.48700994    -0.14390
C1101       C  0.55770595  0.02507562  0.25684390    -0.12830
C1102       C  0.55802976  0.04962631  0.24371766    -0.14390
C1103       C  0.46620882  0.54975744  0.25625899    -0.12830
C1104       C  0.46628668  0.52482444  0.24392995    -0.14390
C1105       C  0.49818545  0.78569541  0.36813864    -0.12830
C1106       C  0.52434927  0.79332673  0.36984410    -0.14390
C1107       C  0.46882428  0.84370831  0.43051366    -0.12830
C1108       C  0.45465915  0.82714090  0.44824653    -0.14390
C1109       C  0.44461068  0.83662527  0.18138528    -0.12830
C1110       C  0.46024742  0.85181238  0.19979344    -0.14390
C1111       C  0.39574181  0.65531162  0.42670419    -0.12830
C1112       C  0.38214855  0.66718510  0.44871317    -0.14390
C1113       C  0.38861125  0.68113473  0.18038794    -0.12830
C1114       C  0.40419917  0.66602135  0.19763856    -0.14390
C1115       C  0.55985955  0.73258379  0.42320360    -0.12830
C1116       C  0.57662706  0.74817155  0.43948905    -0.14390
C1117       C  0.55807314  0.72415171  0.19126219    -0.12830
C1118       C  0.57340516  0.73910728  0.17231211    -0.14390
C1119       C  0.64495118  0.90874872  0.44769265    -0.12830
C1120       C  0.63021141  0.92229600  0.42765284    -0.14390
C1121       C  0.61465825  0.90725143  0.19694079    -0.12830
C1122       C  0.62901609  0.89253469  0.17825891    -0.14390
C1123       C  0.51624754  0.78743790  0.00431781    -0.12830
C1124       C  0.50743978  0.76334256  0.01340564    -0.14390
C1125       C  0.96694987  0.02613039  0.49438645    -0.12830
C1126       C  0.96687405  0.05085963  0.00698363    -0.14390
C1127       C  0.05822133  0.52608930  0.00700376    -0.12830
C1128       C  0.05805555  0.55078522  0.49442743    -0.14390
C1129       C  0.03594262  0.78439023  0.39031085    -0.12830
C1130       C  0.01209170  0.79308823  0.38063364    -0.14390
C1131       C  0.77409041  0.83659331  0.13207775    -0.12830
C1132       C  0.74915996  0.83655538  0.11982921    -0.14390
C1133       C  0.94926180  0.75091017  0.31222000    -0.12830
C1134       C  0.96658807  0.73598662  0.32851078    -0.14390
C1135       C  0.94857188  0.73811265  0.07950734    -0.12830
C1136       C  0.96354904  0.72307035  0.06035581    -0.14390
C1137       C  0.87896989  0.90937054  0.30321130    -0.12830
C1138       C  0.89390368  0.92384565  0.32236701    -0.14390
C1139       C  0.89760796  0.89088812  0.07211573    -0.12830
C1140       C  0.91241320  0.90511669  0.05333536    -0.14390
C1141       C  0.24914886  0.73775206  0.13120024    -0.12830
C1142       C  0.27380257  0.73762633  0.11853741    -0.14390
C1143       C  0.05144128  0.85046626  0.31318219    -0.12830
C1144       C  0.06606455  0.83286817  0.29690529    -0.14390
C1145       C  0.06416475  0.85058574  0.04601408    -0.12830
C1146       C  0.07884425  0.83522540  0.06516131    -0.14390
C1147       C  0.13305440  0.67993397  0.07121787    -0.12830
C1148       C  0.11706934  0.66443336  0.05467320    -0.14390
C1149       C  0.12755209  0.65751039  0.32399823    -0.12830
C1150       C  0.14047068  0.66981767  0.30175588    -0.14390
C1151       C  0.01580160  0.76468177  0.23648294    -0.12830
C1152       C  0.00729526  0.78873299  0.24588375    -0.14390
Zr1153     Zr  0.14662537  0.76888013  0.62857555     2.17510
O1154       O  0.17627282  0.80562483  0.59787717    -0.50890
O1155       O  0.14334923  0.72989622  0.58743175    -0.74090
O1156       O  0.19999998  0.75543465  0.62654231    -0.80880
O1157       O  0.06784020  0.80636719  0.60966771    -0.82620
O1158       O  0.21400578  0.73150670  0.67262284    -0.78250
O1159       O  0.11692498  0.80438786  0.59243930    -0.89880
O1160       O  0.14924596  0.69192580  0.62147630    -0.75840
O1161       O  0.15456040  0.72185805  0.65753189    -0.85340
O1162       O  0.09900516  0.74247685  0.62877213    -0.85020
O1163       O  0.16568925  0.77907712  0.68200906    -0.71780
O1164       O  0.11431091  0.80213150  0.65780337    -0.83920
Zr1165     Zr  0.09013816  0.74143641  0.73872756     2.26420
Zr1166     Zr  0.17156221  0.73130846  0.71069880     2.06270
Zr1167     Zr  0.06648325  0.77602749  0.65720616     2.10050
Zr1168     Zr  0.10743115  0.69591264  0.65760622     1.78760
O1169       O  0.04794123  0.82646608  0.67233699    -0.92720
O1170       O  0.12773231  0.64479903  0.66593873    -0.40530
O1171       O  0.07488631  0.72936478  0.68535083    -0.77160
O1172       O  0.12308193  0.70614418  0.71092230    -0.95850
O1173       O  0.13901914  0.76528507  0.73971141    -0.89150
O1174       O  0.08335286  0.78789448  0.71002563    -0.91990
C1175       C  0.14460523  0.70134401  0.59353225     1.01760
C1176       C  0.08890442  0.81414265  0.59040004     1.14690
C1177       C  0.21923871  0.74161748  0.64436818     1.05470
O1178       O  0.20581806  0.68777763  0.71462607    -0.94150
O1179       O  0.16345689  0.69747381  0.75813141    -0.89890
O1180       O  0.11487010  0.70647088  0.77435503    -0.83040
C1181       C  0.14040314  0.69276182  0.77679328     1.12110
O1182       O  0.16916833  0.84855363  0.69066606    -0.96120
Zr1183     Zr  0.13212665  0.81190799  0.71113341     1.88940
O1184       O  0.07687888  0.78468768  0.77413026    -0.72770
O1185       O  0.20635214  0.76022538  0.74431311    -0.52030
O1186       O  0.17033950  0.81873424  0.75261928    -0.96710
O1187       O  0.11231787  0.86317828  0.70198476    -0.53930
O1188       O  0.10174017  0.82712413  0.75668629    -0.73290
C1189       C  0.08298665  0.81353600  0.77523897     0.99050
O1190       O  0.05365021  0.71993546  0.77654970    -0.62110
O1191       O  0.02805359  0.75644358  0.62040802    -0.56910
O1192       O  0.04430921  0.72711063  0.71210580    -0.93600
O1193       O  0.02040402  0.76070066  0.68321163    -0.92020
O1194       O  0.07306552  0.68341873  0.61393467    -0.92380
O1195       O  0.07180024  0.65687127  0.67551737    -0.91160
C1196       C  0.02399244  0.74739154  0.70972592     1.17900
H1197       H  0.09110853  0.73914128  0.60761903     0.33840
H1198       H  0.12343516  0.68608221  0.72033039     0.44690
H1199       H  0.06762550  0.80047488  0.71907516     0.38220
H1200       H  0.18534565  0.78893648  0.68047882     0.34700
H1201       H  0.12851239  0.63563476  0.64443855     0.26490
H1202       H  0.21844274  0.74446499  0.75552224     0.32420
H1203       H  0.16354545  0.83693306  0.76463410     0.38330
H1204       H  0.07557012  0.66116577  0.61071543     0.32790
H1205       H  0.03766077  0.75668888  0.59913620     0.31670
H1206       H  0.06041308  0.84108943  0.65998082     0.33350
H1207       H  0.11964688  0.87542382  0.72025796     0.32320
H1208       H  0.06720026  0.66247370  0.69780043     0.36320
H1209       H  0.04933051  0.69910701  0.76854424     0.29050
H1210       H  0.18689276  0.79353126  0.58137880     0.33280
H1211       H  0.17515939  0.86140582  0.70900410     0.36130
H1212       H  0.02623893  0.73446768  0.62563103     0.28750
H1213       H  0.06462081  0.71650870  0.79672590     0.41620
H1214       H  0.19651169  0.67206636  0.70073136     0.31670
H1215       H  0.14935127  0.64809425  0.67180878     0.39290
H1216       H  0.09006270  0.86146778  0.70539816     0.31140
H1217       H  0.22092110  0.76971907  0.72930819     0.31200
H1218       H  0.19257515  0.81282263  0.61236898     0.31470
Zr1219     Zr  0.87758794  0.80613037  0.63632544     2.17510
O1220       O  0.84993649  0.76887664  0.60421418    -0.50890
O1221       O  0.88608731  0.84312824  0.59387536    -0.74090
O1222       O  0.82413716  0.81969021  0.63006479    -0.80880
O1223       O  0.95671894  0.76645627  0.62538650    -0.82620
O1224       O  0.80795156  0.84592671  0.67385201    -0.78250
O1225       O  0.90922098  0.76937842  0.60374656    -0.89880
O1226       O  0.88201428  0.88487425  0.62364109    -0.75840
O1227       O  0.87058237  0.85517833  0.66117769    -0.85340
O1228       O  0.92659202  0.82919624  0.63956314    -0.85020
O1229       O  0.85464706  0.79911204  0.68856386    -0.71780
O1230       O  0.90558956  0.77364350  0.67089890    -0.83920
Zr1231     Zr  0.92666312  0.83748878  0.74946629     2.26420
Zr1232     Zr  0.84904755  0.84879860  0.71310155     2.06270
Zr1233     Zr  0.95487717  0.79658142  0.67347994     2.10050
Zr1234     Zr  0.91954884  0.87794277  0.66417094     1.78760
O1235       O  0.96498670  0.74385905  0.68872695    -0.92720
O1236       O  0.90169247  0.93008566  0.67180064    -0.40530
O1237       O  0.94882473  0.84548585  0.69766781    -0.77160
O1238       O  0.89882268  0.87190923  0.71589518    -0.95850
O1239       O  0.87696086  0.81542196  0.74759498    -0.89150
O1240       O  0.93328388  0.78891288  0.72409542    -0.91990
C1241       C  0.88638041  0.87218399  0.59705637     1.01760
C1242       C  0.93710312  0.75910965  0.60420669     1.14690
C1243       C  0.80389920  0.83411471  0.64616058     1.05470
O1244       O  0.81571629  0.89315622  0.71126131    -0.94150
O1245       O  0.85714804  0.88560130  0.75725668    -0.89890
O1246       O  0.89249884  0.86123674  0.78682653    -0.83040
C1247       C  0.87491732  0.88388610  0.78164001     1.12110
O1248       O  0.84696800  0.73040244  0.70215273    -0.96120
Zr1249     Zr  0.88403662  0.76679279  0.72314966     1.88940
O1250       O  0.93556791  0.79757082  0.78923750    -0.72770
O1251       O  0.81202408  0.82410750  0.74764155    -0.52030
O1252       O  0.84384795  0.76403126  0.76291480    -0.96710
O1253       O  0.90143208  0.71409229  0.71847407    -0.53930
O1254       O  0.91362127  0.75379084  0.77088979    -0.73290
C1255       C  0.93094538  0.76856335  0.79025979     0.99050
O1256       O  0.95437493  0.88147918  0.76999358    -0.62110
O1257       O  0.99896105  0.81015943  0.64142182    -0.56910
O1258       O  0.97860339  0.82900946  0.76344972    -0.93600
O1259       O  0.98632249  0.82481644  0.71208699    -0.92020
O1260       O  0.95599640  0.88628921  0.62135110    -0.92380
O1261       O  0.95810001  0.91532009  0.67921625    -0.91160
C1262       C  0.99268724  0.81684742  0.74059312     1.17900
H1263       H  0.93641825  0.83062005  0.61908005     0.33840
H1264       H  0.89912451  0.89223824  0.72471855     0.44690
H1265       H  0.94783266  0.77598884  0.73459307     0.38220
H1266       H  0.83473112  0.78999414  0.68602287     0.34700
H1267       H  0.90310116  0.93958922  0.65049785     0.26490
H1268       H  0.79943927  0.84107989  0.75593304     0.32420
H1269       H  0.84972589  0.74670362  0.77672947     0.38330
H1270       H  0.95188612  0.90732979  0.61388372     0.32790
H1271       H  0.99329834  0.80686066  0.61891541     0.31670
H1272       H  0.95210923  0.73114853  0.67461517     0.33350
H1273       H  0.89228122  0.70337205  0.73686506     0.32320
H1274       H  0.96125262  0.91194697  0.70225639     0.36320
H1275       H  0.93974228  0.89865279  0.76946103     0.29050
H1276       H  0.84051245  0.78069450  0.58671467     0.33280
H1277       H  0.83811935  0.72000615  0.72088963     0.36130
H1278       H  0.99935982  0.83271037  0.64314100     0.28750
H1279       H  0.95731475  0.87693286  0.79279472     0.41620
H1280       H  0.82613511  0.90754109  0.69671617     0.31670
H1281       H  0.87953343  0.92800780  0.67571500     0.39290
H1282       H  0.92347676  0.71475142  0.72345037     0.31140
H1283       H  0.79830023  0.81294170  0.73297929     0.31200
H1284       H  0.83266365  0.76202135  0.61757210     0.31470
Zr1285     Zr  0.02810883  0.65363784  0.99695838     2.17510
O1286       O  0.99039081  0.62459597  0.02695355    -0.50890
O1287       O  0.06691955  0.65565922  0.53832019    -0.74090
O1288       O  0.04058583  0.60000977  0.99899608    -0.80880
O1289       O  0.99256821  0.73338399  0.51579982    -0.82620
O1290       O  0.06461491  0.58585006  0.95307554    -0.78250
O1291       O  0.99347938  0.68421209  0.53316550    -0.89880
O1292       O  0.10467144  0.64875114  0.50434451    -0.75840
O1293       O  0.07485278  0.64448985  0.96806401    -0.85340
O1294       O  0.05582371  0.70053183  0.99696029    -0.85020
O1295       O  0.01760475  0.63499306  0.94342626    -0.71780
O1296       O  0.99588659  0.68702604  0.96777743    -0.83920
Zr1297     Zr  0.05738767  0.70997595  0.88686791     2.26420
Zr1298     Zr  0.06512821  0.62809289  0.91475936     2.06270
Zr1299     Zr  0.02329227  0.73415250  0.96854378     2.10050
Zr1300     Zr  0.10213310  0.69084652  0.96825532     1.78760
O1301       O  0.97373502  0.75431456  0.95264600    -0.92720
O1302       O  0.15237224  0.66871849  0.95975535    -0.40530
O1303       O  0.06953185  0.72421149  0.94050093    -0.77160
O1304       O  0.09166393  0.67591048  0.91471457    -0.95850
O1305       O  0.03216816  0.66170104  0.88578473    -0.89150
O1306       O  0.01116258  0.71779340  0.91558169    -0.91990
C1307       C  0.09538160  0.65358858  0.53228241     1.01760
C1308       C  0.98434741  0.71248941  0.53512549     1.14690
C1309       C  0.05434230  0.58069038  0.98125096     1.05470
O1310       O  0.10697225  0.59192699  0.90995392    -0.94150
O1311       O  0.09940875  0.63542877  0.86769041    -0.89890
O1312       O  0.09109585  0.68403388  0.85081510    -0.83040
C1313       C  0.10446118  0.65823923  0.84875813     1.12110
O1314       O  0.94823122  0.63350775  0.93484574    -0.96120
Zr1315     Zr  0.98580834  0.66961148  0.91439053     1.88940
O1316       O  0.01437556  0.72408311  0.85144727    -0.72770
O1317       O  0.03485453  0.59433062  0.88129843    -0.52030
O1318       O  0.97775890  0.63151787  0.87299803    -0.96710
O1319       O  0.93527690  0.69106886  0.92349220    -0.53930
O1320       O  0.97137966  0.70025995  0.86880220    -0.73290
C1321       C  0.98544252  0.71865965  0.85026579     0.99050
O1322       O  0.07999363  0.74782573  0.85097077    -0.62110
O1323       O  0.04369874  0.77157034  0.00603902    -0.56910
O1324       O  0.07345799  0.75517386  0.91371939    -0.93600
O1325       O  0.04125871  0.77990124  0.94346632    -0.92020
O1326       O  0.11555981  0.72471671  0.01206315    -0.92380
O1327       O  0.14218134  0.72564845  0.95104539    -0.91160
C1328       C  0.05379114  0.77603130  0.91661464     1.17900
H1329       H  0.05934770  0.70826295  0.51814547     0.33840
H1330       H  0.11166908  0.67509706  0.90530365     0.44690
H1331       H  0.99900156  0.73382266  0.90645178     0.38220
H1332       H  0.00727580  0.61554627  0.94485155     0.34700
H1333       H  0.16154889  0.66753662  0.98123462     0.26490
H1334       H  0.05008377  0.58288062  0.86869803     0.32420
H1335       H  0.95971716  0.63879797  0.86104771     0.38330
H1336       H  0.13764226  0.72137727  0.01548782     0.32790
H1337       H  0.04265506  0.76185752  0.02725022     0.31670
H1338       H  0.95862389  0.74258602  0.96514073     0.33350
H1339       H  0.92275622  0.68395502  0.90533336     0.32320
H1340       H  0.13700847  0.73043223  0.92868179     0.36320
H1341       H  0.09590529  0.73775755  0.83806993     0.29050
H1342       H  0.00201947  0.61365657  0.54361056     0.33280
H1343       H  0.93502060  0.62812896  0.91658350     0.36130
H1344       H  0.06579268  0.77252298  0.50132110     0.28750
H1345       H  0.06382532  0.75368857  0.83574836     0.41620
H1346       H  0.12342321  0.60067856  0.92328746     0.31670
H1347       H  0.14828284  0.64721478  0.95384548     0.39290
H1348       H  0.93762891  0.71327202  0.91985629     0.31140
H1349       H  0.02632904  0.57902249  0.89615858     0.31200
H1350       H  0.98310267  0.60846433  0.01228953     0.31470
Zr1351     Zr  0.99755089  0.92293078  0.98913873     2.17510
O1352       O  0.03548644  0.95020797  0.02069820    -0.50890
O1353       O  0.96044564  0.91513760  0.53155983    -0.74090
O1354       O  0.98424896  0.97629758  0.99584812    -0.80880
O1355       O  0.03597841  0.84311362  0.49994722    -0.82620
O1356       O  0.95787326  0.99277437  0.95223513    -0.78250
O1357       O  0.03353944  0.89055659  0.52189386    -0.89880
O1358       O  0.91889381  0.92005916  0.50166457    -0.75840
O1359       O  0.94872032  0.93080779  0.96422403    -0.85340
O1360       O  0.97366516  0.87433586  0.98594595    -0.85020
O1361       O  0.00484592  0.94591856  0.93690076    -0.71780
O1362       O  0.02945874  0.89452453  0.95451335    -0.83920
Zr1363     Zr  0.96528741  0.87450747  0.87585981     2.26420
Zr1364     Zr  0.95533759  0.95230240  0.91231443     2.06270
Zr1365     Zr  0.00571188  0.84560743  0.95200947     2.10050
Zr1366     Zr  0.92511667  0.88222827  0.96128281     1.78760
O1367       O  0.05818192  0.83515068  0.93641923    -0.92720
O1368       O  0.87340158  0.90107686  0.95355972    -0.40530
O1369       O  0.95700471  0.85249939  0.92773950    -0.77160
O1370       O  0.93141669  0.90285839  0.90950705    -0.95850
O1371       O  0.98813913  0.92392460  0.87772728    -0.89150
O1372       O  0.01367052  0.86705628  0.90130216    -0.91990
C1373       C  0.93143660  0.91556101  0.52831551     1.01760
C1374       C  0.04346601  0.86251704  0.52128907     1.14690
C1375       C  0.96967473  0.99657884  0.97995650     1.05470
O1376       O  0.91207495  0.98703962  0.91327834    -0.94150
O1377       O  0.91827982  0.94495489  0.86830542    -0.89890
O1378       O  0.94166508  0.90902660  0.83862702    -0.83040
C1379       C  0.91950381  0.92718277  0.84389777     1.12110
O1380       O  0.07345286  0.95260255  0.92325764    -0.96120
Zr1381     Zr  0.03657428  0.91602797  0.90223336     1.88940
O1382       O  0.00504913  0.86496224  0.83613019    -0.72770
O1383       O  0.98117054  0.98909593  0.87837048    -0.52030
O1384       O  0.03983568  0.95626904  0.86245171    -0.96710
O1385       O  0.08899734  0.89798442  0.90683472    -0.53930
O1386       O  0.04912155  0.88616533  0.85454960    -0.73290
C1387       C  0.03409603  0.86908530  0.83514589     0.99050
O1388       O  0.92105229  0.84751448  0.85497455    -0.62110
O1389       O  0.99141415  0.80195956  0.98450378    -0.56910
O1390       O  0.97248227  0.82219343  0.86219196    -0.93600
O1391       O  0.97623340  0.81516896  0.91363266    -0.92020
O1392       O  0.91619169  0.84599313  0.00425516    -0.92380
O1393       O  0.88720921  0.84411650  0.94647344    -0.91160
C1394       C  0.98419263  0.80813190  0.88534632     1.17900
H1395       H  0.97210644  0.86449816  0.50643023     0.33840
H1396       H  0.91110246  0.90289012  0.90070306     0.44690
H1397       H  0.02627686  0.85226656  0.89078058     0.38220
H1398       H  0.01421310  0.96573934  0.93948541     0.34700
H1399       H  0.86388751  0.89984393  0.97485241     0.26490
H1400       H  0.96447200  0.00099286  0.86851001     0.32420
H1401       H  0.05703260  0.95014970  0.84863425     0.38330
H1402       H  0.89537804  0.85069320  0.01190252     0.32790
H1403       H  0.99497375  0.80765284  0.00695659     0.31670
H1404       H  0.07109240  0.84758740  0.95076062     0.33350
H1405       H  0.09977479  0.90708695  0.88845861     0.32320
H1406       H  0.89044083  0.84087888  0.92343150     0.36320
H1407       H  0.90398599  0.86223524  0.85607449     0.29050
H1408       H  0.02405435  0.95959937  0.53846377     0.33280
H1409       H  0.08379134  0.96150797  0.90451976     0.36130
H1410       H  0.96888361  0.80212238  0.48296241     0.28750
H1411       H  0.92538635  0.84519601  0.83206081     0.41620
H1412       H  0.89702618  0.97689703  0.92728148     0.31670
H1413       H  0.87589044  0.92323057  0.94962193     0.39290
H1414       H  0.08809432  0.87592791  0.90181258     0.31140
H1415       H  0.99100067  0.00353869  0.89332358     0.31200
H1416       H  0.04215981  0.96756080  0.00730743     0.31470
Zr1417     Zr  0.64557281  0.80616082  0.61538464     2.17510
O1418       O  0.67269530  0.76898619  0.64798517    -0.50890
O1419       O  0.63809562  0.84405386  0.65710102    -0.74090
O1420       O  0.69912149  0.81947554  0.62167321    -0.80880
O1421       O  0.56595261  0.76687212  0.62601714    -0.82620
O1422       O  0.71541577  0.84581590  0.57795706    -0.78250
O1423       O  0.61322460  0.77005608  0.64820371    -0.89880
O1424       O  0.64237523  0.88512730  0.62631236    -0.75840
O1425       O  0.65285961  0.85493657  0.59003886    -0.85340
O1426       O  0.59661726  0.82912372  0.61159306    -0.85020
O1427       O  0.66901934  0.79888422  0.56345516    -0.71780
O1428       O  0.61768289  0.77337107  0.58099448    -0.83920
Zr1429     Zr  0.59730050  0.83641286  0.50145636     2.26420
Zr1430     Zr  0.67464342  0.84830129  0.53827738     2.06270
Zr1431     Zr  0.56846161  0.79630666  0.57757564     2.10050
Zr1432     Zr  0.60400353  0.87762294  0.58664873     1.78760
O1433       O  0.55838775  0.74344061  0.56277664    -0.92720
O1434       O  0.62162139  0.92974413  0.57801924    -0.40530
O1435       O  0.57482612  0.84498652  0.55304729    -0.77160
O1436       O  0.62485262  0.87113812  0.53503904    -0.95850
O1437       O  0.64699589  0.81445000  0.50404923    -0.89150
O1438       O  0.59064014  0.78808957  0.52734967    -0.91990
C1439       C  0.63860739  0.87303688  0.65330897     1.01760
C1440       C  0.58529460  0.75980767  0.64753772     1.14690
C1441       C  0.71939044  0.83399254  0.60565689     1.05470
O1442       O  0.70815509  0.89261216  0.53980689    -0.94150
O1443       O  0.66646534  0.88482431  0.99376481    -0.89890
O1444       O  0.63102757  0.86059967  0.96391701    -0.83040
C1445       C  0.64874740  0.88319958  0.96928692     1.12110
O1446       O  0.67683047  0.73019876  0.55125950    -0.96120
Zr1447     Zr  0.63992634  0.76608008  0.52919544     1.88940
O1448       O  0.58902599  0.79533095  0.96251961    -0.72770
O1449       O  0.71177384  0.82333768  0.50413959    -0.52030
O1450       O  0.68063528  0.76273996  0.49006501    -0.96710
O1451       O  0.62226653  0.71348891  0.53460044    -0.53930
O1452       O  0.61144820  0.75204678  0.98129473    -0.73290
C1453       C  0.59417702  0.76639413  0.96164864     0.99050
O1454       O  0.56983420  0.88085698  0.48131351    -0.62110
O1455       O  0.52387283  0.81013033  0.60875322    -0.56910
O1456       O  0.54563261  0.82735959  0.48681881    -0.93600
O1457       O  0.53722609  0.82368068  0.53814567    -0.92020
O1458       O  0.56833352  0.88615218  0.63013616    -0.92380
O1459       O  0.56538236  0.91517891  0.57252174    -0.91160
C1460       C  0.53122389  0.81543010  0.50961754     1.17900
H1461       H  0.58678376  0.83069801  0.63205969     0.33840
H1462       H  0.62450987  0.89140743  0.52608421     0.44690
H1463       H  0.57625660  0.77496174  0.51681385     0.38220
H1464       H  0.68892962  0.78986204  0.56621875     0.34700
H1465       H  0.62070551  0.93945476  0.59925391     0.26490
H1466       H  0.72415774  0.84028187  0.49541115     0.32420
H1467       H  0.67508780  0.74499882  0.47665225     0.38330
H1468       H  0.57303267  0.90699939  0.63784783     0.32790
H1469       H  0.52931408  0.80738801  0.63139818     0.31670
H1470       H  0.57085931  0.73086676  0.57737573     0.33350
H1471       H  0.63173144  0.70239405  0.51663863     0.32320
H1472       H  0.54866707  0.90309591  0.56288320     0.36320
H1473       H  0.55661051  0.88723864  0.49917407     0.29050
H1474       H  0.68218192  0.78090281  0.66539523     0.33280
H1475       H  0.68558771  0.71922717  0.53284245     0.36130
H1476       H  0.52323605  0.83263107  0.60649958     0.28750
H1477       H  0.58515362  0.89737789  0.47975383     0.41620
H1478       H  0.69779626  0.90711298  0.55425282     0.31670
H1479       H  0.64368713  0.92769738  0.57357600     0.39290
H1480       H  0.60032150  0.71405578  0.52915929     0.31140
H1481       H  0.72566181  0.81265538  0.51899388     0.31200
H1482       H  0.68994617  0.76187402  0.63476244     0.31470
Zr1483     Zr  0.37642354  0.76874094  0.62029217     2.17510
O1484       O  0.34704748  0.80587695  0.65069121    -0.50890
O1485       O  0.37950873  0.73065031  0.66228450    -0.74090
O1486       O  0.32296109  0.75554511  0.62262681    -0.80880
O1487       O  0.45524217  0.80684175  0.63775229    -0.82620
O1488       O  0.30891471  0.73033109  0.57729009    -0.78250
O1489       O  0.40624061  0.80520435  0.65528461    -0.89880
O1490       O  0.37355689  0.69161979  0.62943158    -0.75840
O1491       O  0.36833125  0.72106459  0.59258083    -0.85340
O1492       O  0.42394909  0.74230463  0.62073653    -0.85020
O1493       O  0.35731555  0.77777986  0.56668909    -0.71780
O1494       O  0.40889031  0.80128716  0.59031642    -0.83920
Zr1495     Zr  0.43297102  0.73851506  0.51118285     2.26420
Zr1496     Zr  0.35133779  0.72936044  0.53922419     2.06270
Zr1497     Zr  0.45660835  0.77511373  0.59142744     2.10050
Zr1498     Zr  0.41535336  0.69504309  0.59317925     1.78760
O1499       O  0.47618508  0.82468985  0.57463165    -0.92720
O1500       O  0.39498266  0.64384522  0.58529024    -0.40530
O1501       O  0.44826489  0.72768157  0.56472031    -0.77160
O1502       O  0.39968436  0.70399935  0.53962739    -0.95850
O1503       O  0.38419993  0.76250095  0.50956238    -0.89150
O1504       O  0.43974639  0.78582421  0.53832434    -0.91990
C1505       C  0.37792200  0.70194177  0.65709627     1.01760
C1506       C  0.43426856  0.81504792  0.65685574     1.14690
C1507       C  0.30370176  0.74120623  0.60523495     1.05470
O1508       O  0.31717618  0.68560793  0.53626784    -0.94150
O1509       O  0.35911967  0.69511163  0.99210549    -0.89890
O1510       O  0.40795175  0.70335486  0.97625317    -0.83040
C1511       C  0.38225108  0.69001816  0.97368939     1.12110
O1512       O  0.35512374  0.84749727  0.55734832    -0.96120
Zr1513     Zr  0.39104875  0.80984831  0.53683040     1.88940
O1514       O  0.44539659  0.78034882  0.97407374    -0.72770
O1515       O  0.31650307  0.75771922  0.50522996    -0.52030
O1516       O  0.35171908  0.81661596  0.49650488    -0.96710
O1517       O  0.41242943  0.86081957  0.54405159    -0.53930
O1518       O  0.42015116  0.82313696  0.98975689    -0.73290
C1519       C  0.43871759  0.80891501  0.97155069     0.99050
O1520       O  0.46986155  0.71564248  0.47460912    -0.62110
O1521       O  0.49460567  0.75637872  0.62913134    -0.56910
O1522       O  0.47920924  0.72528622  0.53769102    -0.93600
O1523       O  0.50287122  0.75901171  0.56660762    -0.92020
O1524       O  0.44909231  0.68319841  0.63754108    -0.92380
O1525       O  0.45140320  0.65589659  0.57666513    -0.91160
C1526       C  0.49936419  0.74579088  0.54005901     1.17900
H1527       H  0.43182746  0.73945982  0.64197047     0.33840
H1528       H  0.39911767  0.68378616  0.53056844     0.44690
H1529       H  0.45528445  0.79825313  0.52864393     0.38220
H1530       H  0.33770291  0.78771385  0.56798348     0.34700
H1531       H  0.39425815  0.63484419  0.60686424     0.26490
H1532       H  0.30444758  0.74177285  0.49421849     0.32420
H1533       H  0.35847452  0.83449205  0.48393514     0.38330
H1534       H  0.44597713  0.66113177  0.64152045     0.32790
H1535       H  0.48496729  0.75755056  0.65035316     0.31670
H1536       H  0.46379572  0.83990931  0.58624608     0.33350
H1537       H  0.40469861  0.87286707  0.52583362     0.32320
H1538       H  0.45593558  0.66080935  0.55418986     0.36320
H1539       H  0.47576804  0.69604578  0.48459443     0.29050
H1540       H  0.33645216  0.79398559  0.66738108     0.33280
H1541       H  0.34952211  0.86054525  0.53904209     0.36130
H1542       H  0.49607874  0.73420216  0.62479372     0.28750
H1543       H  0.45880243  0.70938104  0.45523642     0.41620
H1544       H  0.32643656  0.67028294  0.55062178     0.31670
H1545       H  0.37334923  0.64706993  0.57947255     0.39290
H1546       H  0.43448409  0.85853039  0.53974414     0.31140
H1547       H  0.30190782  0.76733519  0.52010222     0.31200
H1548       H  0.33071165  0.81295158  0.63619847     0.31470
Zr1549     Zr  0.49409728  0.65376043  0.75425845     2.17510
O1550       O  0.53032427  0.62563199  0.72151323    -0.50890
O1551       O  0.45425666  0.65729392  0.71412005    -0.74090
O1552       O  0.48213817  0.59980894  0.75160156    -0.80880
O1553       O  0.52797781  0.73422154  0.73514661    -0.82620
O1554       O  0.45924098  0.58480709  0.79782478    -0.78250
O1555       O  0.52908555  0.68475308  0.71877122    -0.89880
O1556       O  0.41635509  0.65142874  0.74835765    -0.75840
O1557       O  0.44749450  0.64536606  0.78347477    -0.85340
O1558       O  0.46765059  0.70134722  0.75572468    -0.85020
O1559       O  0.50533520  0.63386359  0.80708104    -0.71780
O1560       O  0.52719927  0.68567596  0.78415088    -0.83920
Zr1561     Zr  0.46828046  0.70826779  0.86644645     2.26420
Zr1562     Zr  0.45799023  0.62733385  0.83599874     2.06270
Zr1563     Zr  0.50099050  0.73337679  0.78484072     2.10050
Zr1564     Zr  0.42177163  0.69271489  0.78518067     1.78760
O1565       O  0.55407113  0.74865683  0.79111248    -0.92720
O1566       O  0.37121259  0.67195689  0.79553357    -0.40530
O1567       O  0.45495350  0.72549543  0.81387273    -0.77160
O1568       O  0.43290620  0.67604389  0.83776783    -0.95850
O1569       O  0.49214721  0.65933760  0.86583766    -0.89150
O1570       O  0.51415355  0.71578641  0.83686231    -0.91990
C1571       C  0.42578279  0.65575714  0.72035579     1.01760
C1572       C  0.53713998  0.71333171  0.71629271     1.14690
C1573       C  0.46919635  0.57994916  0.76944658     1.05470
O1574       O  0.41502057  0.59223006  0.83900264    -0.94150
O1575       O  0.42362517  0.63395265  0.88277196    -0.89890
O1576       O  0.43408811  0.68142605  0.90185755    -0.83040
C1577       C  0.41948593  0.65613471  0.90264279     1.12110
O1578       O  0.57477403  0.63039535  0.81553613    -0.96120
Zr1579     Zr  0.53826500  0.66706715  0.83679930     1.88940
O1580       O  0.51174904  0.72016549  0.90178254    -0.72770
O1581       O  0.48705836  0.59280725  0.86969076    -0.52030
O1582       O  0.54531958  0.62861167  0.87798819    -0.96710
O1583       O  0.58931098  0.68710556  0.82704590    -0.53930
O1584       O  0.55435491  0.69751550  0.88212884    -0.73290
C1585       C  0.54072069  0.71523250  0.90170344     0.99050
O1586       O  0.44602025  0.74487647  0.90379827    -0.62110
O1587       O  0.47963243  0.77421908  0.75232472    -0.56910
O1588       O  0.45586033  0.75846230  0.84932014    -0.93600
O1589       O  0.48890622  0.77785467  0.81572077    -0.92020
O1590       O  0.40867292  0.72699490  0.74163744    -0.92380
O1591       O  0.38259860  0.72852623  0.80212128    -0.91160
C1592       C  0.47788443  0.77628921  0.84363418     1.17900
H1593       H  0.46411741  0.70969609  0.73479971     0.33840
H1594       H  0.41297926  0.67560059  0.84736773     0.44690
H1595       H  0.52709356  0.73150452  0.84553416     0.38220
H1596       H  0.51524328  0.61427268  0.80505415     0.34700
H1597       H  0.36123902  0.67112512  0.77442248     0.26490
H1598       H  0.47141279  0.58020187  0.88044270     0.32420
H1599       H  0.56352219  0.63544145  0.88999123     0.38330
H1600       H  0.38693210  0.72269794  0.73710051     0.32790
H1601       H  0.47854586  0.76598006  0.73044392     0.31670
H1602       H  0.56638439  0.73193721  0.78189772     0.33350
H1603       H  0.60182165  0.67968494  0.84506436     0.32320
H1604       H  0.38850068  0.73416681  0.82407539     0.36320
H1605       H  0.42967008  0.73470932  0.91602634     0.29050
H1606       H  0.51791887  0.61486596  0.70532601     0.33280
H1607       H  0.58746205  0.62392086  0.83380283     0.36130
H1608       H  0.45805660  0.77561658  0.75906234     0.28750
H1609       H  0.46221421  0.74973319  0.91938184     0.41620
H1610       H  0.39963964  0.60095979  0.82436229     0.31670
H1611       H  0.37485034  0.65031950  0.80118278     0.39290
H1612       H  0.58765061  0.70937541  0.83067104     0.31140
H1613       H  0.49709049  0.57861331  0.85467628     0.31200
H1614       H  0.53854256  0.60933057  0.73539336     0.31470
Zr1615     Zr  0.52780927  0.92161313  0.75847835     2.17510
O1616       O  0.49113682  0.94951801  0.72596565    -0.50890
O1617       O  0.56591871  0.91624619  0.71686391    -0.74090
O1618       O  0.54044954  0.97530558  0.75404745    -0.80880
O1619       O  0.49227164  0.84171596  0.74219159    -0.82620
O1620       O  0.56489963  0.99094583  0.79917915    -0.78250
O1621       O  0.49075463  0.89103052  0.72532187    -0.89880
O1622       O  0.60618920  0.92222056  0.74835316    -0.75840
O1623       O  0.57532595  0.93045615  0.78579998    -0.85340
O1624       O  0.55388689  0.87383586  0.75990295    -0.85020
O1625       O  0.51778091  0.94222865  0.81119672    -0.71780
O1626       O  0.49605100  0.88989523  0.78994003    -0.83920
Zr1627     Zr  0.55675315  0.86907831  0.87016676     2.26420
Zr1628     Zr  0.56605133  0.94929557  0.83829814     2.06270
Zr1629     Zr  0.52172317  0.84187927  0.79058871     2.10050
Zr1630     Zr  0.60085009  0.88295611  0.78744576     1.78760
O1631       O  0.46840832  0.82829196  0.79969738    -0.92720
O1632       O  0.65139105  0.90408610  0.79720419    -0.40530
O1633       O  0.56865252  0.85068051  0.81777238    -0.77160
O1634       O  0.59136019  0.90066436  0.84002884    -0.95850
O1635       O  0.53276635  0.91785975  0.86978804    -0.89150
O1636       O  0.50988654  0.86043376  0.84245173    -0.91990
C1637       C  0.59475041  0.91756445  0.72118561     1.01760
C1638       C  0.48236163  0.86255246  0.72364176     1.14690
C1639       C  0.55429661  0.99532542  0.77096705     1.05470
O1640       O  0.60854356  0.98502127  0.84074167    -0.94150
O1641       O  0.60159344  0.94356819  0.88418564    -0.89890
O1642       O  0.59089334  0.89674234  0.90453696    -0.83040
C1643       C  0.60576414  0.92179447  0.90447805     1.12110
O1644       O  0.44858734  0.94478295  0.82040138    -0.96120
Zr1645     Zr  0.48580284  0.90919109  0.84241837     1.88940
O1646       O  0.51505596  0.85708591  0.90684238    -0.72770
O1647       O  0.53714666  0.98426772  0.87156747    -0.52030
O1648       O  0.47928409  0.94827050  0.88303043    -0.96710
O1649       O  0.43439447  0.88924574  0.83453963    -0.53930
O1650       O  0.47141101  0.87895909  0.88884357    -0.73290
C1651       C  0.48615060  0.86156245  0.90798070     0.99050
O1652       O  0.57904960  0.83759399  0.91182036    -0.62110
O1653       O  0.53850913  0.80077918  0.75556556    -0.56910
O1654       O  0.57085119  0.81742373  0.86009069    -0.93600
O1655       O  0.54462322  0.79943549  0.82000524    -0.92020
O1656       O  0.61284615  0.84783895  0.74429672    -0.92380
O1657       O  0.64011783  0.84670753  0.80319017    -0.91160
C1658       C  0.54955459  0.80062687  0.84985990     1.17900
H1659       H  0.55672707  0.86503597  0.73906463     0.33840
H1660       H  0.61147714  0.90128272  0.84923464     0.44690
H1661       H  0.49704833  0.84509598  0.85170001     0.38220
H1662       H  0.50780922  0.96178074  0.80909113     0.34700
H1663       H  0.66144736  0.90400401  0.77614616     0.26490
H1664       H  0.55286727  0.99616769  0.88308927     0.32420
H1665       H  0.46110731  0.94171067  0.89518626     0.38330
H1666       H  0.63390356  0.85321666  0.73793069     0.32790
H1667       H  0.53641277  0.80841197  0.73353668     0.31670
H1668       H  0.45607520  0.84463469  0.78977934     0.33350
H1669       H  0.42240332  0.89733364  0.85259938     0.32320
H1670       H  0.63503384  0.84141340  0.82544129     0.36320
H1671       H  0.60142699  0.84015174  0.91010186     0.29050
H1672       H  0.50325457  0.95961560  0.70912406     0.33280
H1673       H  0.43714945  0.95293023  0.83880577     0.36130
H1674       H  0.56085998  0.79995634  0.75879716     0.28750
H1675       H  0.57338299  0.84759348  0.93200510     0.41620
H1676       H  0.62430220  0.97589297  0.82685574     0.31670
H1677       H  0.64774553  0.92594880  0.80181348     0.39290
H1678       H  0.43596734  0.86709352  0.83889447     0.31140
H1679       H  0.52805509  0.99902084  0.85646499     0.31200
H1680       H  0.48359840  0.96633546  0.73957945     0.31470
Zr1681     Zr  0.64660701  0.26959434  0.88599695     2.17510
O1682       O  0.67379156  0.30716024  0.85393722    -0.50890
O1683       O  0.63913840  0.23198783  0.84396414    -0.74090
O1684       O  0.70002691  0.25628185  0.87962024    -0.80880
O1685       O  0.56701274  0.30869527  0.87540649    -0.82620
O1686       O  0.71632465  0.22964957  0.92315988    -0.78250
O1687       O  0.61424387  0.30569452  0.85324602    -0.89880
O1688       O  0.64350202  0.19073379  0.87447132    -0.75840
O1689       O  0.65396049  0.22069584  0.91104012    -0.85340
O1690       O  0.59771149  0.24641277  0.88947389    -0.85020
O1691       O  0.67008350  0.27663895  0.93802285    -0.71780
O1692       O  0.61871842  0.30206735  0.92054248    -0.83920
Zr1693     Zr  0.59840883  0.23840281  0.99958357     2.26420
Zr1694     Zr  0.67574709  0.22710048  0.96289141     2.06270
Zr1695     Zr  0.56954416  0.27891454  0.92362243     2.10050
Zr1696     Zr  0.60514746  0.19779089  0.91411827     1.78760
O1697       O  0.55930151  0.33164659  0.93870521    -0.92720
O1698       O  0.62291155  0.14569872  0.92237523    -0.40530
O1699       O  0.57592170  0.23009956  0.94786978    -0.77160
O1700       O  0.62601592  0.20404157  0.96580271    -0.95850
O1701       O  0.64806520  0.26059581  0.99731432    -0.89150
O1702       O  0.59172373  0.28686157  0.97396596    -0.91990
C1703       C  0.63968153  0.20298329  0.84755490     1.01760
C1704       C  0.58632242  0.31587741  0.85393142     1.14690
C1705       C  0.72024999  0.24161975  0.89553706     1.05470
O1706       O  0.70965545  0.18317045  0.96153828    -0.94150
O1707       O  0.66775017  0.19016218  0.50703253    -0.89890
O1708       O  0.63204390  0.21374728  0.53694513    -0.83040
C1709       C  0.65001063  0.19141519  0.53146111     1.12110
O1710       O  0.67784167  0.34524121  0.95077741    -0.96120
Zr1711     Zr  0.64095195  0.30909937  0.97245838     1.88940
O1712       O  0.59005918  0.27923586  0.53875813    -0.72770
O1713       O  0.71273867  0.25232258  0.99715595    -0.52030
O1714       O  0.68161090  0.31239059  0.01176802    -0.96710
O1715       O  0.62318665  0.36164457  0.96733626    -0.53930
O1716       O  0.61239592  0.32273370  0.52034339    -0.73290
C1717       C  0.59513727  0.30819144  0.53983306     0.99050
O1718       O  0.57129158  0.19355500  0.01937806    -0.62110
O1719       O  0.52520150  0.26489647  0.89200913    -0.56910
O1720       O  0.54674707  0.24741378  0.01415639    -0.93600
O1721       O  0.53849277  0.25108026  0.96280014    -0.92020
O1722       O  0.56947568  0.18936226  0.87049863    -0.92380
O1723       O  0.56660816  0.16002099  0.92802293    -0.91160
C1724       C  0.53236968  0.25928733  0.99128317     1.17900
H1725       H  0.58787719  0.24493015  0.86897222     0.33840
H1726       H  0.62574127  0.18370649  0.97459367     0.44690
H1727       H  0.57732773  0.29988742  0.98453471     0.38220
H1728       H  0.68998907  0.28573162  0.93535622     0.34700
H1729       H  0.62198293  0.13612948  0.90106833     0.26490
H1730       H  0.72453936  0.23540373  0.00674726     0.32420
H1731       H  0.67601365  0.33003055  0.02526895     0.38330
H1732       H  0.57418829  0.16856572  0.86269303     0.32790
H1733       H  0.53071022  0.26787702  0.86942798     0.31670
H1734       H  0.57185559  0.34436340  0.92432472     0.33350
H1735       H  0.63261983  0.37267379  0.98539997     0.32320
H1736       H  0.54982178  0.17201297  0.93755253     0.36320
H1737       H  0.55671770  0.18825412  0.00224294     0.29050
H1738       H  0.68322311  0.29545498  0.83638184     0.33280
H1739       H  0.68650515  0.35618961  0.96929407     0.36130
H1740       H  0.52476798  0.24237217  0.89406299     0.28750
H1741       H  0.58631579  0.17672759  0.01895392     0.41620
H1742       H  0.69930597  0.16842679  0.94729743     0.31670
H1743       H  0.64498011  0.14782443  0.92685248     0.39290
H1744       H  0.60123986  0.36094906  0.97270114     0.31140
H1745       H  0.72717537  0.26226410  0.98232648     0.31200
H1746       H  0.69108019  0.31409344  0.86727888     0.31470
Zr1747     Zr  0.37738891  0.30517978  0.87947729     2.17510
O1748       O  0.34804315  0.26794946  0.84900592    -0.50890
O1749       O  0.38024039  0.34349346  0.83769422    -0.74090
O1750       O  0.32387773  0.31819203  0.87719308    -0.80880
O1751       O  0.45642339  0.26788365  0.86167256    -0.82620
O1752       O  0.30995255  0.34307310  0.92271494    -0.78250
O1753       O  0.40732914  0.26915573  0.84424967    -0.89880
O1754       O  0.37420321  0.38225323  0.87082675    -0.75840
O1755       O  0.36918557  0.35262072  0.90753309    -0.85340
O1756       O  0.42482050  0.33191831  0.87924166    -0.85020
O1757       O  0.35844359  0.29569569  0.93301734    -0.71780
O1758       O  0.41007359  0.27267600  0.90924024    -0.83920
Zr1759     Zr  0.43398841  0.33510061  0.98884444     2.26420
Zr1760     Zr  0.35235792  0.34389379  0.96083643     2.06270
Zr1761     Zr  0.45768709  0.29915621  0.90835926     2.10050
Zr1762     Zr  0.41608774  0.37895763  0.90709266     1.78760
O1763       O  0.47701683  0.24935526  0.92466467    -0.92720
O1764       O  0.39546562  0.42997665  0.91513006    -0.40530
O1765       O  0.44918598  0.34637562  0.93538537    -0.77160
O1766       O  0.40056377  0.36959695  0.96058691    -0.95850
O1767       O  0.38535795  0.31074776  0.99028538    -0.89150
O1768       O  0.44095665  0.28801970  0.96136918    -0.91990
C1769       C  0.37858740  0.37215696  0.84309175     1.01760
C1770       C  0.43542170  0.25958672  0.84255806     1.14690
C1771       C  0.30467125  0.33238228  0.89470012     1.05470
O1772       O  0.31786085  0.38726364  0.96423390    -0.94150
O1773       O  0.36009764  0.37797775  0.50812165    -0.89890
O1774       O  0.40899584  0.37000470  0.52396000    -0.83040
C1775       C  0.38324107  0.38315917  0.52657099     1.12110
O1776       O  0.35655874  0.22590709  0.94183101    -0.96120
Zr1777     Zr  0.39237289  0.26364323  0.96264623     1.88940
O1778       O  0.44669796  0.29309776  0.52566101    -0.72770
O1779       O  0.31776236  0.31498705  0.99457417    -0.52030
O1780       O  0.35321570  0.25632728  0.00295959    -0.96710
O1781       O  0.41391524  0.21284140  0.95507920    -0.53930
O1782       O  0.42169555  0.25022226  0.50956410    -0.73290
C1783       C  0.44021045  0.26444777  0.52790402     0.99050
O1784       O  0.47076555  0.35786584  0.02573880    -0.62110
O1785       O  0.49571513  0.31837827  0.87101278    -0.56910
O1786       O  0.48001934  0.34874502  0.96232097    -0.93600
O1787       O  0.50389290  0.31500640  0.93372145    -0.92020
O1788       O  0.44977363  0.39120995  0.86287368    -0.92380
O1789       O  0.45190359  0.41832080  0.92391137    -0.91160
C1790       C  0.50028626  0.32839401  0.96015890     1.17900
H1791       H  0.43264637  0.33493693  0.85803051     0.33840
H1792       H  0.39993857  0.38975864  0.96975877     0.44690
H1793       H  0.45659791  0.27565769  0.97095734     0.38220
H1794       H  0.33886340  0.28565447  0.93165065     0.34700
H1795       H  0.39463761  0.43903061  0.89358270     0.26490
H1796       H  0.30578713  0.33075107  0.00588419     0.32420
H1797       H  0.36009903  0.23841454  0.01539046     0.38330
H1798       H  0.44663697  0.41329310  0.85905095     0.32790
H1799       H  0.48602996  0.31755076  0.84976895     0.31670
H1800       H  0.46467795  0.23427974  0.91271897     0.33350
H1801       H  0.40622518  0.20061913  0.97318176     0.32320
H1802       H  0.45654601  0.41327486  0.94633979     0.36320
H1803       H  0.47613281  0.37784336  0.01623673     0.29050
H1804       H  0.33736886  0.27982342  0.83234832     0.33280
H1805       H  0.35100013  0.21273664  0.96005139     0.36130
H1806       H  0.49729246  0.34048246  0.87571861     0.28750
H1807       H  0.45975340  0.36332750  0.04536458     0.41620
H1808       H  0.32711900  0.40292019  0.95026939     0.31670
H1809       H  0.37386456  0.42656879  0.92094087     0.39290
H1810       H  0.43596399  0.21521243  0.95946026     0.31140
H1811       H  0.30306143  0.30554530  0.97963089     0.31200
H1812       H  0.33176601  0.26077144  0.86349161     0.31470
Zr1813     Zr  0.52928578  0.15334679  0.74153272     2.17510
O1814       O  0.49261671  0.12567608  0.77424737    -0.50890
O1815       O  0.56729389  0.15937389  0.78329163    -0.74090
O1816       O  0.54166135  0.09964928  0.74632361    -0.80880
O1817       O  0.49283240  0.23297640  0.75655956    -0.82620
O1818       O  0.56605037  0.08359817  0.70139774    -0.78250
O1819       O  0.49215599  0.18395199  0.77437372    -0.89880
O1820       O  0.60782255  0.15364396  0.75221874    -0.75840
O1821       O  0.57702486  0.14469323  0.71474241    -0.85340
O1822       O  0.55492320  0.20136382  0.73975180    -0.85020
O1823       O  0.51966077  0.13217219  0.68894357    -0.71780
O1824       O  0.49745041  0.18439265  0.70943443    -0.83920
Zr1825     Zr  0.55840331  0.20509467  0.62952546     2.26420
Zr1826     Zr  0.56812061  0.12527840  0.66235231     2.06270
Zr1827     Zr  0.52265853  0.23270679  0.70846363     2.10050
Zr1828     Zr  0.60214015  0.19247767  0.71273992     1.78760
O1829       O  0.46938792  0.24567829  0.69814427    -0.92720
O1830       O  0.65291412  0.17193422  0.70333931    -0.40530
O1831       O  0.56982370  0.22409398  0.68181916    -0.77160
O1832       O  0.59307300  0.17417798  0.66027363    -0.95850
O1833       O  0.53479911  0.15606586  0.63017665    -0.89150
O1834       O  0.51129922  0.21350753  0.65673763    -0.91990
C1835       C  0.59616195  0.15831471  0.77924371     1.01760
C1836       C  0.48336392  0.21230880  0.77556193     1.14690
C1837       C  0.55526441  0.07941669  0.72954441     1.05470
O1838       O  0.61128597  0.09040816  0.66150414    -0.94150
O1839       O  0.60383621  0.13084886  0.61674439    -0.89890
O1840       O  0.59199319  0.17688089  0.59520869    -0.83040
C1841       C  0.60745869  0.15224195  0.59592259     1.12110
O1842       O  0.45057895  0.12865075  0.67894999    -0.96120
Zr1843     Zr  0.48762442  0.16451296  0.65704926     1.88940
O1844       O  0.51683502  0.21636688  0.59238185    -0.72770
O1845       O  0.54020314  0.08969964  0.62870898    -0.52030
O1846       O  0.48189524  0.12506585  0.61666208    -0.96710
O1847       O  0.43593580  0.18378335  0.66425903    -0.53930
O1848       O  0.47323336  0.19433340  0.61031612    -0.73290
C1849       C  0.48794632  0.21172083  0.59115080     0.99050
O1850       O  0.58242976  0.23626786  0.58872178    -0.62110
O1851       O  0.53859569  0.27411380  0.74360858    -0.56910
O1852       O  0.57151279  0.25754111  0.63693745    -0.93600
O1853       O  0.54728214  0.27422787  0.67886186    -0.92020
O1854       O  0.61366056  0.22799980  0.75572552    -0.92380
O1855       O  0.64107252  0.22916986  0.69707407    -0.91160
C1856       C  0.55048164  0.27361754  0.64872243     1.17900
H1857       H  0.55758718  0.21037814  0.76052541     0.33840
H1858       H  0.61318338  0.17367550  0.65109331     0.44690
H1859       H  0.49834920  0.22855383  0.64724817     0.38220
H1860       H  0.50979046  0.11256045  0.69115107     0.34700
H1861       H  0.66296318  0.17234703  0.72442437     0.26490
H1862       H  0.55621462  0.07697990  0.61876129     0.32420
H1863       H  0.46380280  0.13133935  0.60418486     0.38330
H1864       H  0.63467492  0.22277945  0.76239503     0.32790
H1865       H  0.53598287  0.26675929  0.76567328     0.31670
H1866       H  0.45703176  0.22962882  0.70855482     0.33350
H1867       H  0.42417646  0.17543949  0.64611369     0.32320
H1868       H  0.63610049  0.23418426  0.67471463     0.36320
H1869       H  0.60467115  0.23285159  0.59070473     0.29050
H1870       H  0.50474461  0.11565154  0.79114259     0.33280
H1871       H  0.43952231  0.12005745  0.66046890     0.36130
H1872       H  0.56102207  0.27483522  0.74102734     0.28750
H1873       H  0.57653958  0.22679681  0.56831149     0.41620
H1874       H  0.62628599  0.09965531  0.67625644     0.31670
H1875       H  0.64951553  0.14998285  0.69894140     0.39290
H1876       H  0.43728442  0.20593307  0.65979984     0.31140
H1877       H  0.52983590  0.07578171  0.64377421     0.31200
H1878       H  0.48495601  0.10879884  0.76074391     0.31470
Zr1879     Zr  0.49472281  0.42105005  0.74664134     2.17510
O1880       O  0.53074812  0.44965373  0.77936034    -0.50890
O1881       O  0.45490068  0.41755095  0.78671334    -0.74090
O1882       O  0.48250811  0.47493461  0.74887812    -0.80880
O1883       O  0.52904768  0.34092655  0.76629044    -0.82620
O1884       O  0.45950975  0.48952247  0.70252028    -0.78250
O1885       O  0.52984591  0.39048760  0.78240529    -0.89880
O1886       O  0.41710901  0.42304071  0.75222703    -0.75840
O1887       O  0.44808532  0.42895325  0.71723173    -0.85340
O1888       O  0.46844517  0.37329392  0.74542804    -0.85020
O1889       O  0.50584687  0.44070429  0.69371343    -0.71780
O1890       O  0.52803423  0.38916229  0.71709986    -0.83920
Zr1891     Zr  0.46902857  0.36567983  0.63481184     2.26420
Zr1892     Zr  0.45846518  0.44675752  0.66462571     2.06270
Zr1893     Zr  0.50195143  0.34131542  0.71662664     2.10050
Zr1894     Zr  0.42251741  0.38145294  0.71580148     1.78760
O1895       O  0.55477892  0.32561826  0.70979527    -0.92720
O1896       O  0.37176626  0.40174884  0.70559845    -0.40530
O1897       O  0.45580895  0.34865424  0.68746377    -0.77160
O1898       O  0.43354331  0.39791162  0.66312708    -0.95850
O1899       O  0.49273553  0.41474740  0.63515189    -0.89150
O1900       O  0.51494212  0.35872279  0.66451336    -0.91990
C1901       C  0.42644025  0.41887738  0.78030938     1.01760
C1902       C  0.53807022  0.36198823  0.78505382     1.14690
C1903       C  0.46945253  0.49460171  0.73089278     1.05470
O1904       O  0.41518660  0.48136612  0.66138866    -0.94150
O1905       O  0.42428374  0.43962975  0.61765733    -0.89890
O1906       O  0.43466484  0.39196257  0.59914062    -0.83040
C1907       C  0.42012977  0.41724305  0.59800915     1.12110
O1908       O  0.57529877  0.44457942  0.68536668    -0.96120
Zr1909     Zr  0.53891690  0.40753114  0.66431722     1.88940
O1910       O  0.51253088  0.35375943  0.59966852    -0.72770
O1911       O  0.48732609  0.48136495  0.63083346    -0.52030
O1912       O  0.54587113  0.44581225  0.62293758    -0.96710
O1913       O  0.58997979  0.38772390  0.67434835    -0.53930
O1914       O  0.55503848  0.37692726  0.61916149    -0.73290
C1915       C  0.54147275  0.35895286  0.59971353     0.99050
O1916       O  0.44701856  0.32865702  0.59759806    -0.62110
O1917       O  0.48021278  0.30064621  0.74910393    -0.56910
O1918       O  0.45702183  0.31590259  0.65351656    -0.93600
O1919       O  0.49146518  0.29662326  0.68570453    -0.92020
O1920       O  0.40963601  0.34728526  0.75950112    -0.92380
O1921       O  0.38343506  0.34548452  0.69867514    -0.91160
C1922       C  0.47914041  0.29800088  0.65834514     1.17900
H1923       H  0.46494987  0.36507142  0.76640781     0.33840
H1924       H  0.41361247  0.39821127  0.65347555     0.44690
H1925       H  0.52789883  0.34300954  0.65594319     0.38220
H1926       H  0.51567562  0.46037027  0.69563666     0.34700
H1927       H  0.36195876  0.40266237  0.72676276     0.26490
H1928       H  0.47161970  0.49402390  0.62025201     0.32420
H1929       H  0.56405838  0.43898275  0.61098453     0.38330
H1930       H  0.38777359  0.35115306  0.76370187     0.32790
H1931       H  0.47864169  0.30915238  0.77083724     0.31670
H1932       H  0.56730660  0.34207922  0.71928869     0.33350
H1933       H  0.60248872  0.39509340  0.65632696     0.32320
H1934       H  0.38940478  0.33984065  0.67676176     0.36320
H1935       H  0.43060513  0.33861359  0.58526403     0.29050
H1936       H  0.51826001  0.46042158  0.79542255     0.33280
H1937       H  0.58811664  0.45080987  0.66712956     0.36130
H1938       H  0.45879819  0.29893276  0.74183477     0.28750
H1939       H  0.46322111  0.32383986  0.58206520     0.41620
H1940       H  0.39991028  0.47254320  0.67606921     0.31670
H1941       H  0.37524086  0.42336981  0.69974925     0.39290
H1942       H  0.58834348  0.36543067  0.67084237     0.31140
H1943       H  0.49755285  0.49549720  0.64581961     0.31200
H1944       H  0.53890452  0.46593398  0.76541173     0.31470
Zr1945     Zr  0.14661182  0.30780943  0.87250279     2.17510
O1946       O  0.17569319  0.27085446  0.90351120    -0.50890
O1947       O  0.14396865  0.34667884  0.91379835    -0.74090
O1948       O  0.20032766  0.32015194  0.87416410    -0.80880
O1949       O  0.06737169  0.27109842  0.89127396    -0.82620
O1950       O  0.21461508  0.34378825  0.82803345    -0.78250
O1951       O  0.11654433  0.27242600  0.90843736    -0.89880
O1952       O  0.15014957  0.38478499  0.87997307    -0.75840
O1953       O  0.15505523  0.35487516  0.84376281    -0.85340
O1954       O  0.09931941  0.33469225  0.87242617    -0.85020
O1955       O  0.16532705  0.29760050  0.81900714    -0.71780
O1956       O  0.11378569  0.27500389  0.84316101    -0.83920
Zr1957     Zr  0.09008615  0.33628885  0.76252859     2.26420
Zr1958     Zr  0.17173083  0.34541649  0.79052005     2.06270
Zr1959     Zr  0.06628871  0.30159297  0.84385486     2.10050
Zr1960     Zr  0.10822455  0.38129152  0.84380578     1.78760
O1961       O  0.04741224  0.25133675  0.82831475    -0.92720
O1962       O  0.12900288  0.43229752  0.83577428    -0.40530
O1963       O  0.07513801  0.34830376  0.81595102    -0.77160
O1964       O  0.12358993  0.37109996  0.79043818    -0.95850
O1965       O  0.13864674  0.31191555  0.76140488    -0.89150
O1966       O  0.08283395  0.28976224  0.79097575    -0.91990
C1967       C  0.14546901  0.37525098  0.90785905     1.01760
C1968       C  0.08839426  0.26300305  0.91047691     1.14690
C1969       C  0.21980374  0.33346342  0.85620948     1.05470
O1970       O  0.20585208  0.38920408  0.78766504    -0.94150
O1971       O  0.16405980  0.37929129  0.74308611    -0.89890
O1972       O  0.11523612  0.37100763  0.72702454    -0.83040
C1973       C  0.14098504  0.38432929  0.72451035     1.12110
O1974       O  0.16771412  0.22802430  0.81023916    -0.96120
Zr1975     Zr  0.13128807  0.26524766  0.78976931     1.88940
O1976       O  0.07630886  0.29339984  0.72684325    -0.72770
O1977       O  0.20622629  0.31684805  0.75642248    -0.52030
O1978       O  0.16957212  0.25826352  0.74850337    -0.96710
O1979       O  0.11074119  0.21414882  0.79842373    -0.53930
O1980       O  0.10076940  0.25065546  0.74399511    -0.73290
C1981       C  0.08213772  0.26452430  0.72552160     0.99050
O1982       O  0.05380021  0.35843667  0.72485893    -0.62110
O1983       O  0.02807397  0.32113336  0.88077430    -0.56910
O1984       O  0.04435963  0.35098879  0.78896368    -0.93600
O1985       O  0.02030800  0.31767990  0.81807138    -0.92020
O1986       O  0.07405665  0.39387124  0.88750197    -0.92380
O1987       O  0.07305784  0.42076198  0.82601730    -0.91160
C1988       C  0.02392420  0.33079615  0.79146025     1.17900
H1989       H  0.09152110  0.33801440  0.89359737     0.33840
H1990       H  0.12422334  0.39117369  0.78106795     0.44690
H1991       H  0.06697403  0.27736379  0.78181749     0.38220
H1992       H  0.18484260  0.28749257  0.82045438     0.34700
H1993       H  0.12987725  0.44135699  0.85732173     0.26490
H1994       H  0.21958570  0.33260653  0.74688583     0.32420
H1995       H  0.16253230  0.24027494  0.73625658     0.38330
H1996       H  0.07676049  0.41609782  0.89079610     0.32790
H1997       H  0.03775497  0.32079795  0.90203425     0.31670
H1998       H  0.05969864  0.23658723  0.84070746     0.33350
H1999       H  0.11801427  0.20192468  0.78014269     0.32320
H2000       H  0.06829260  0.41524711  0.80373280     0.36320
H2001       H  0.05000271  0.37936167  0.73284254     0.29050
H2002       H  0.18667493  0.28291885  0.91982355     0.33280
H2003       H  0.17366031  0.21527400  0.79183510     0.36130
H2004       H  0.02634149  0.34313405  0.87564802     0.28750
H2005       H  0.06469877  0.36160822  0.70461978     0.41620
H2006       H  0.19726669  0.40404572  0.80297463     0.31670
H2007       H  0.15058694  0.42888362  0.82993480     0.39290
H2008       H  0.08852987  0.21611521  0.79482311     0.31140
H2009       H  0.21965417  0.30563807  0.77131406     0.31200
H2010       H  0.19174202  0.26317942  0.88904178     0.31470
Zr2011     Zr  0.87784414  0.27066213  0.86464247     2.17510
O2012       O  0.85019330  0.30788432  0.89663273    -0.50890
O2013       O  0.88594984  0.23339224  0.90689297    -0.74090
O2014       O  0.82452995  0.25678338  0.87089559    -0.80880
O2015       O  0.95688309  0.31071918  0.87569871    -0.82620
O2016       O  0.80846625  0.23023440  0.82719699    -0.78250
O2017       O  0.90952483  0.30729079  0.89747786    -0.89880
O2018       O  0.88187503  0.19185852  0.87676122    -0.75840
O2019       O  0.87091348  0.22164038  0.83970589    -0.85340
O2020       O  0.92685841  0.24778191  0.86151034    -0.85020
O2021       O  0.85477517  0.27763212  0.81240746    -0.71780
O2022       O  0.90571326  0.30329524  0.83015254    -0.83920
Zr2023     Zr  0.92686495  0.23961404  0.75156909     2.26420
Zr2024     Zr  0.84931367  0.22795791  0.78779590     2.06270
Zr2025     Zr  0.95502496  0.28055805  0.82765832     2.10050
Zr2026     Zr  0.91987527  0.19904587  0.83682095     1.78760
O2027       O  0.96476566  0.33336157  0.81240591    -0.92720
O2028       O  0.90233728  0.14678573  0.82888975    -0.40530
O2029       O  0.94909088  0.23163981  0.80340113    -0.77160
O2030       O  0.89912678  0.20503852  0.78505184    -0.95850
O2031       O  0.87711342  0.26146009  0.75335494    -0.89150
O2032       O  0.93334125  0.28817802  0.77701646    -0.91990
C2033       C  0.88595770  0.20435569  0.90351230     1.01760
C2034       C  0.93734359  0.31778481  0.89697974     1.14690
C2035       C  0.80441177  0.24205492  0.85485927     1.05470
O2036       O  0.81586175  0.18360197  0.78927563    -0.94150
O2037       O  0.85729719  0.19118151  0.74371787    -0.89890
O2038       O  0.89280450  0.21543860  0.71423504    -0.83040
C2039       C  0.87504902  0.19287592  0.71937826     1.12110
O2040       O  0.84700303  0.34630833  0.79896839    -0.96120
Zr2041     Zr  0.88405927  0.31009090  0.77789055     1.88940
O2042       O  0.93550509  0.27959679  0.71178898    -0.72770
O2043       O  0.81219156  0.25273609  0.75340999    -0.52030
O2044       O  0.84375353  0.31270489  0.73814348    -0.96710
O2045       O  0.90136422  0.36286802  0.78254449    -0.53930
O2046       O  0.91351172  0.32326107  0.73018672    -0.73290
C2047       C  0.93081990  0.30858878  0.71080363     0.99050
O2048       O  0.95472324  0.19588994  0.73085526    -0.62110
O2049       O  0.99903600  0.26719156  0.86001622    -0.56910
O2050       O  0.97877304  0.24864538  0.73777043    -0.93600
O2051       O  0.98672347  0.25274319  0.78913542    -0.92020
O2052       O  0.95583630  0.19072120  0.88017197    -0.92380
O2053       O  0.95876490  0.16201442  0.82214802    -0.91160
C2054       C  0.99289158  0.26085315  0.76064568     1.17900
H2055       H  0.93664902  0.24637633  0.88203841     0.33840
H2056       H  0.89945523  0.18472266  0.77619974     0.44690
H2057       H  0.94781704  0.30119032  0.76652562     0.38220
H2058       H  0.83483432  0.28663752  0.81493932     0.34700
H2059       H  0.90363625  0.13725358  0.85018859     0.26490
H2060       H  0.80011153  0.23570977  0.74435809     0.32420
H2061       H  0.84956250  0.33006288  0.72433577     0.38330
H2062       H  0.95161216  0.16967443  0.88757002     0.32790
H2063       H  0.99334624  0.27050166  0.88249560     0.31670
H2064       H  0.95189558  0.34597701  0.82655314     0.33350
H2065       H  0.89209833  0.37355476  0.76418384     0.32320
H2066       H  0.96188406  0.16526704  0.79909144     0.36320
H2067       H  0.94021757  0.17857690  0.73149020     0.29050
H2068       H  0.84084503  0.29606936  0.91416918     0.33280
H2069       H  0.83802835  0.35664282  0.78024824     0.36130
H2070       H  0.99946741  0.24463786  0.85835103     0.28750
H2071       H  0.95742027  0.20045993  0.70803024     0.41620
H2072       H  0.82634857  0.16904417  0.80358236     0.31670
H2073       H  0.88019701  0.14870643  0.82474326     0.39290
H2074       H  0.92338640  0.36231858  0.77751221     0.31140
H2075       H  0.79802478  0.26311236  0.76817840     0.31200
H2076       H  0.83286635  0.31460500  0.88325268     0.31470
Zr2077     Zr  0.99653501  0.15444552  0.51152107     2.17510
O2078       O  0.03429405  0.12745739  0.47964810    -0.50890
O2079       O  0.95926864  0.16156530  0.96909671    -0.74090
O2080       O  0.98378266  0.10085290  0.50527796    -0.80880
O2081       O  0.03430350  0.23455495  0.00013823    -0.82620
O2082       O  0.95757701  0.08434232  0.54893337    -0.78250
O2083       O  0.03266315  0.18676500  0.97892708    -0.89880
O2084       O  0.91789283  0.15626223  0.99907166    -0.75840
O2085       O  0.94783137  0.14620813  0.53646277    -0.85340
O2086       O  0.97224030  0.20283934  0.51436369    -0.85020
O2087       O  0.00418663  0.13183327  0.56387285    -0.71780
O2088       O  0.02825031  0.18344804  0.54591441    -0.83920
Zr2089     Zr  0.96411989  0.20322584  0.62438275     2.26420
Zr2090     Zr  0.95479167  0.12509097  0.58848744     2.06270
Zr2091     Zr  0.00415936  0.23213589  0.54810924     2.10050
Zr2092     Zr  0.92380974  0.19454310  0.53907193     1.78760
O2093       O  0.05687783  0.24196647  0.56352646    -0.92720
O2094       O  0.87221778  0.17532055  0.54687151    -0.40530
O2095       O  0.95555628  0.22481249  0.57237290    -0.77160
O2096       O  0.93040834  0.17426638  0.59097891    -0.95850
O2097       O  0.98742065  0.15406888  0.62285901    -0.89150
O2098       O  0.01240044  0.21108897  0.59897824    -0.91990
C2099       C  0.93028513  0.16078382  0.97237965     1.01760
C2100       C  0.04226277  0.21493939  0.97922891     1.14690
C2101       C  0.96939169  0.08050507  0.52126379     1.05470
O2102       O  0.91167068  0.09007514  0.58760613    -0.94150
O2103       O  0.91792017  0.13218060  0.63253506    -0.89890
O2104       O  0.94100978  0.16865930  0.66188700    -0.83040
C2105       C  0.91908245  0.15010016  0.65682260     1.12110
O2106       O  0.07293946  0.12636468  0.57706468    -0.96120
Zr2107     Zr  0.03572064  0.16233918  0.59829134     1.88940
O2108       O  0.00394821  0.21348630  0.66400540    -0.72770
O2109       O  0.98095355  0.08874882  0.62268009    -0.52030
O2110       O  0.03956082  0.12216027  0.63807855    -0.96710
O2111       O  0.08798405  0.18099387  0.59383549    -0.53930
O2112       O  0.04808212  0.19234487  0.64593170    -0.73290
C2113       C  0.03299372  0.20943751  0.66518007     0.99050
O2114       O  0.91976258  0.22966967  0.64549185    -0.62110
O2115       O  0.99004234  0.27580061  0.51551976    -0.56910
O2116       O  0.97006599  0.25583679  0.63745740    -0.93600
O2117       O  0.97486223  0.26313667  0.58611352    -0.92020
O2118       O  0.91444277  0.23034297  0.49579984    -0.92380
O2119       O  0.88568184  0.23236798  0.55372587    -0.91160
C2120       C  0.98237730  0.26989306  0.61465558     1.17900
H2121       H  0.97055556  0.21253219  0.49381175     0.33840
H2122       H  0.91013156  0.17401695  0.59982151     0.44690
H2123       H  0.02492634  0.22601888  0.60945635     0.38220
H2124       H  0.01372852  0.11210671  0.56142383     0.34700
H2125       H  0.86268602  0.17628267  0.52554788     0.26490
H2126       H  0.96439551  0.07629730  0.63205217     0.32420
H2127       H  0.05683072  0.12844388  0.65178297     0.38330
H2128       H  0.89353000  0.22556143  0.48841675     0.32790
H2129       H  0.99341587  0.27003769  0.49306531     0.31670
H2130       H  0.06960944  0.22973859  0.54888309     0.33350
H2131       H  0.09892201  0.17175471  0.61204913     0.32320
H2132       H  0.88899873  0.23578312  0.57673700     0.36320
H2133       H  0.90282293  0.21475598  0.64445323     0.29050
H2134       H  0.02271509  0.11783341  0.96207588     0.33280
H2135       H  0.08320251  0.11726961  0.59576326     0.36130
H2136       H  0.96752066  0.27584163  0.01714210     0.28750
H2137       H  0.92422560  0.23202606  0.66838828     0.41620
H2138       H  0.89658393  0.10004825  0.57350257     0.31670
H2139       H  0.87484563  0.15322519  0.55102830     0.39290
H2140       H  0.08696133  0.20297213  0.59917973     0.31140
H2141       H  0.99142694  0.07472122  0.60782596     0.31200
H2142       H  0.04133524  0.11026077  0.49304803     0.31470
Zr2143     Zr  0.02891362  0.42298450  0.50427975     2.17510
O2144       O  0.99177847  0.45185098  0.47330843    -0.50890
O2145       O  0.06803217  0.42058495  0.96332004    -0.74090
O2146       O  0.04125519  0.47666965  0.50230796    -0.80880
O2147       O  0.99270434  0.34339373  0.98567806    -0.82620
O2148       O  0.06510865  0.49104656  0.54832988    -0.78250
O2149       O  0.99405073  0.39248528  0.96811378    -0.89880
O2150       O  0.10591737  0.42729648  0.99735849    -0.75840
O2151       O  0.07569940  0.43194766  0.53328269    -0.85340
O2152       O  0.05614273  0.37590370  0.50462136    -0.85020
O2153       O  0.01841081  0.44191317  0.55766029    -0.71780
O2154       O  0.99628744  0.39002656  0.53352859    -0.83920
Zr2155     Zr  0.05744739  0.36697985  0.61484180     2.26420
Zr2156     Zr  0.06595989  0.44866266  0.58644878     2.06270
Zr2157     Zr  0.02325409  0.34271488  0.53311397     2.10210
Zr2158     Zr  0.10247661  0.38533219  0.53350748     1.78760
O2159       O  0.97350463  0.32288986  0.54882157    -0.92720
O2160       O  0.15296747  0.40677659  0.54271764    -0.40530
O2161       O  0.06951605  0.35237421  0.56133973    -0.77160
O2162       O  0.09203461  0.40063777  0.58687859    -0.95850
O2163       O  0.03268134  0.41544187  0.61555062    -0.89150
O2164       O  0.01121021  0.35937496  0.58592493    -0.91990
C2165       C  0.09651877  0.42260508  0.96940205     1.01760
C2166       C  0.98469582  0.36425947  0.96623073     1.14690
C2167       C  0.05482632  0.49611965  0.52012159     1.05470
O2168       O  0.10840648  0.48430078  0.59062447    -0.94150
O2169       O  0.10024759  0.44143321  0.63352689    -0.89890
O2170       O  0.09146126  0.39300296  0.65075265    -0.83040
C2171       C  0.10511155  0.41871129  0.65260673     1.12110
O2172       O  0.94909300  0.44415658  0.56633508    -0.96120
Zr2173     Zr  0.98627576  0.40769683  0.58682260     1.88940
O2174       O  0.01425565  0.35326977  0.65010586    -0.72770
O2175       O  0.03630559  0.48268937  0.62006532    -0.52030
O2176       O  0.97876013  0.44584229  0.62823363    -0.96710
O2177       O  0.93549474  0.38675370  0.57749654    -0.53930
O2178       O  0.97143200  0.37709512  0.63233154    -0.73290
C2179       C  0.98533798  0.35872319  0.65103965     0.99050
O2180       O  0.07958825  0.32918159  0.65109459    -0.62110
O2181       O  0.04354382  0.30490379  0.49609086    -0.56910
O2182       O  0.07316727  0.32131804  0.58870103    -0.93600
O2183       O  0.04090721  0.29704620  0.55844538    -0.92020
O2184       O  0.11568425  0.35151128  0.48964405    -0.92380
O2185       O  0.14183944  0.34978243  0.55068509    -0.91160
C2186       C  0.05317535  0.30075373  0.58549417     1.17900
H2187       H  0.05960853  0.36804859  0.48348779     0.33840
H2188       H  0.11204946  0.40134520  0.59633003     0.44690
H2189       H  0.99886429  0.34346608  0.59502123     0.38220
H2190       H  0.00823516  0.46140814  0.55609856     0.34700
H2191       H  0.16240519  0.40777111  0.52137542     0.26490
H2192       H  0.05176896  0.49481468  0.63171171     0.32420
H2193       H  0.96069456  0.43869408  0.64020996     0.38330
H2194       H  0.13773877  0.35494177  0.48612789     0.32790
H2195       H  0.04249052  0.31438333  0.47476510     0.31670
H2196       H  0.95851984  0.33477440  0.53631491     0.33350
H2197       H  0.92304816  0.39394822  0.59563045     0.32320
H2198       H  0.13672156  0.34520703  0.57309874     0.36320
H2199       H  0.09560961  0.33921691  0.66395068     0.29050
H2200       H  0.00370927  0.46277071  0.95688421     0.33280
H2201       H  0.93602162  0.44971108  0.58460398     0.36130
H2202       H  0.06564295  0.30401257  0.00084489     0.28750
H2203       H  0.06334692  0.32359281  0.66631553     0.41620
H2204       H  0.12440912  0.47548783  0.57682344     0.31670
H2205       H  0.14916398  0.42835078  0.54850346     0.39290
H2206       H  0.93757818  0.36452132  0.58108768     0.31140
H2207       H  0.02690674  0.49738764  0.60510980     0.31200
H2208       H  0.98418801  0.46800374  0.48773813     0.31470
C2209       C  0.03474181  0.29277661  0.61144015    -0.12830
C2210       C  0.01043886  0.28447066  0.62022489    -0.14390
C2211       C  0.87883281  0.16744306  0.69775228    -0.12830
C2212       C  0.89363729  0.15308371  0.67848696    -0.14390
C2213       C  0.91114089  0.17106515  0.94738786    -0.12830
C2214       C  0.89655822  0.18540077  0.92851932    -0.14390
C2215       C  0.94904519  0.32636893  0.68887759    -0.12830
C2216       C  0.96634493  0.34140296  0.67266738    -0.14390
C2217       C  0.94884324  0.33870927  0.92175905    -0.12830
C2218       C  0.96387459  0.35371448  0.94095042    -0.14390
C2219       C  0.14130420  0.40718984  0.69950573    -0.12830
C2220       C  0.12835127  0.41944481  0.67725555    -0.14390
C2221       C  0.13407079  0.39658863  0.93027722    -0.12830
C2222       C  0.11814971  0.41197691  0.94692246    -0.14390
C2223       C  0.07811432  0.24196162  0.93564069    -0.12830
C2224       C  0.06320763  0.22672892  0.95469232    -0.14390
C2225       C  0.05029085  0.22806048  0.68724603    -0.12830
C2226       C  0.06502592  0.24549448  0.70366829    -0.14390
C2227       C  0.01571779  0.31326445  0.76481998    -0.12830
C2228       C  0.00730011  0.28913076  0.75544467    -0.14390
C2229       C  0.49811889  0.28815914  0.63303443    -0.12830
C2230       C  0.52416815  0.28060527  0.63022780    -0.14390
C2231       C  0.24994803  0.33646236  0.86909430    -0.12830
C2232       C  0.27474696  0.33611003  0.88148288    -0.14390
C2233       C  0.39650670  0.41785106  0.57375417    -0.12830
C2234       C  0.38305979  0.40589901  0.55164005    -0.14390
C2235       C  0.38924999  0.39317567  0.81999215    -0.12830
C2236       C  0.40483075  0.40844969  0.80289157    -0.14390
C2237       C  0.45631874  0.24613419  0.55100959    -0.12830
C2238       C  0.47057465  0.22950198  0.56859546    -0.14390
C2239       C  0.46136172  0.22309789  0.79942614    -0.12830
C2240       C  0.44578424  0.23819529  0.81790042    -0.14390
C2241       C  0.77473907  0.23921704  0.86899217    -0.12830
C2242       C  0.74991065  0.23907974  0.88132805    -0.14390
C2243       C  0.64653926  0.16570820  0.55291052    -0.12830
C2244       C  0.63196092  0.15192036  0.57288386    -0.14390
C2245       C  0.61585634  0.16883641  0.80365705    -0.12830
C2246       C  0.63010540  0.18360247  0.82245558    -0.14390
C2247       C  0.57750345  0.32620191  0.56203299    -0.12830
C2248       C  0.56067164  0.34165616  0.57830455    -0.14390
C2249       C  0.57440232  0.33659204  0.82919804    -0.12830
C2250       C  0.55904081  0.35145076  0.81019351    -0.14390
C2251       C  0.51736937  0.28724316  0.99644004    -0.12830
C2252       C  0.50851098  0.31118146  0.98701019    -0.14390
C2253       C  0.55770689  0.02507557  0.75684382    -0.12830
C2254       C  0.55803071  0.04962626  0.74371760    -0.14390
C2255       C  0.46620919  0.54975739  0.75625902    -0.12830
C2256       C  0.46628705  0.52482433  0.74393010    -0.14390
C2257       C  0.49818315  0.78569677  0.86813685    -0.12830
C2258       C  0.52434689  0.79332798  0.86984378    -0.14390
C2259       C  0.46882389  0.84370982  0.93051435    -0.12830
C2260       C  0.45465865  0.82714220  0.94824688    -0.14390
C2261       C  0.44461046  0.83662566  0.68138579    -0.12830
C2262       C  0.46024706  0.85181279  0.69979406    -0.14390
C2263       C  0.39574132  0.65531258  0.92670305    -0.12830
C2264       C  0.38214812  0.66718589  0.94871217    -0.14390
C2265       C  0.38861167  0.68113552  0.68038795    -0.12830
C2266       C  0.40419987  0.66602171  0.69763792    -0.14390
C2267       C  0.55985740  0.73258568  0.92320347    -0.12830
C2268       C  0.57662460  0.74817324  0.93948954    -0.14390
C2269       C  0.55807362  0.72415120  0.69126104    -0.12830
C2270       C  0.57340575  0.73910661  0.67231094    -0.14390
C2271       C  0.64495144  0.90874869  0.94769304    -0.12830
C2272       C  0.63021201  0.92229608  0.92765302    -0.14390
C2273       C  0.61465784  0.90725098  0.69694051    -0.12830
C2274       C  0.62901545  0.89253446  0.67825827    -0.14390
C2275       C  0.51624876  0.78743526  0.50431633    -0.12830
C2276       C  0.50744050  0.76334062  0.51340560    -0.14390
C2277       C  0.96694942  0.02613020  0.99438648    -0.12830
C2278       C  0.96687462  0.05085983  0.50698359    -0.14390
C2279       C  0.05822150  0.52608926  0.50700393    -0.12830
C2280       C  0.05805544  0.55078527  0.99442730    -0.14390
C2281       C  0.03594279  0.78439029  0.89031082    -0.12830
C2282       C  0.01209186  0.79308825  0.88063359    -0.14390
C2283       C  0.77409055  0.83659374  0.63207768    -0.12830
C2284       C  0.74916013  0.83655591  0.61982910    -0.14390
C2285       C  0.94926185  0.75091018  0.81221998    -0.12830
C2286       C  0.96658815  0.73598665  0.82851074    -0.14390
C2287       C  0.94857182  0.73811259  0.57950738    -0.12830
C2288       C  0.96354898  0.72307026  0.56035587    -0.14390
C2289       C  0.87896980  0.90937049  0.80321133    -0.12830
C2290       C  0.89390358  0.92384560  0.82236704    -0.14390
C2291       C  0.89760791  0.89088815  0.57211576    -0.12830
C2292       C  0.91241312  0.90511674  0.55333539    -0.14390
C2293       C  0.24914882  0.73775218  0.63120029    -0.12830
C2294       C  0.27380257  0.73762650  0.61853752    -0.14390
C2295       C  0.05144126  0.85046628  0.81318212    -0.12830
C2296       C  0.06606453  0.83286817  0.79690525    -0.14390
C2297       C  0.06416464  0.85058572  0.54601412    -0.12830
C2298       C  0.07884415  0.83522538  0.56516134    -0.14390
C2299       C  0.13305431  0.67993391  0.57121788    -0.12830
C2300       C  0.11706925  0.66443329  0.55467322    -0.14390
C2301       C  0.12755213  0.65751039  0.82399820    -0.12830
C2302       C  0.14047072  0.66981766  0.80175585    -0.14390
C2303       C  0.01580157  0.76468173  0.73648297    -0.12830
C2304       C  0.00729525  0.78873296  0.74588377    -0.14390
loop_ 
_geom_bond_atom_site_label_1 
_geom_bond_atom_site_label_2 
_geom_bond_distance 
_geom_bond_site_symmetry_2 
_ccdc_geom_bond_type 
Zr1           O2   2.439       .  S
Zr1           O3   2.435       .  S
Zr1           O4   2.416       .  S
Zr1           O7   2.535       .  S
Zr1           O9   2.418       .  S
Zr1          O10   2.386       .  S
Zr1          O11   2.439       .  S
Zr1          O12   2.377       .  S
O2           H58   0.990       .  S
O2           H66   0.990       .  S
O3           C23   1.278       .  A
O4           C25   1.281       .  A
O5          Zr15   2.402       .  S
O5           C24   1.276       .  A
O6          Zr14   2.458       .  S
O6           C25   1.290       .  A
O7           C24   1.304       .  A
O8          Zr16   2.390       .  S
O8           C23   1.263       .  A
O9          Zr14   2.393       .  S
O9          Zr16   2.358       .  S
O10         Zr15   2.374       .  S
O10         Zr16   2.402       .  S
O10          H45   0.966       .  S
O11         Zr14   2.429       .  S
O11         Zr31   2.397       .  S
O11          H48   0.966       .  S
O12         Zr15   2.388       .  S
O12         Zr31   2.413       .  S
Zr13         O38   2.446       .  S
Zr13         O32   2.480       .  S
Zr13         O40   2.383       .  S
Zr13         O28   2.402       .  S
Zr13         O19   2.401       .  S
Zr13         O20   2.420       .  S
Zr13         O21   2.384       .  S
Zr13         O22   2.385       .  S
Zr14         O33   2.434       .  S
Zr14         O26   2.434       .  S
Zr14         O27   2.511       .  S
Zr14         O20   2.394       .  S
Zr14         O21   2.398       .  S
Zr15         O17   2.439       .  S
Zr15         O39   2.442       .  S
Zr15         O41   2.395       .  S
Zr15         O19   2.391       .  S
Zr15         O22   2.398       .  S
Zr16         O42   2.437       .  S
Zr16         O43   2.435       .  S
Zr16         O18   2.435       .  S
Zr16         O19   2.357       .  S
Zr16         O20   2.388       .  S
O17          H54   0.990       .  S
O18          H49   0.990       .  S
O18          H63   0.990       .  S
O20          H46   0.964       .  S
O21         Zr31   2.389       .  S
O22         Zr31   2.383       .  S
O22          H47   0.962       .  S
C23        C1147   1.419       .  S
C24        C1146   1.475       .  S
C25        C1141   1.435       .  S
O26          H62   0.990       .  S
O27          C29   1.297       .  A
O28          C29   1.275       .  A
C29        C1150   1.454       .  S
O30         Zr31   2.440       .  S
O30          H59   0.990       .  S
Zr31         O34   2.437       .  S
Zr31         O35   2.439       .  S
Zr31         O36   2.430       .  S
O32          C37   1.292       .  A
O33          H50   0.990       .  S
O33          H65   0.990       .  S
O34          H51   0.990       .  S
O35          H55   0.990       .  S
O35          H64   0.990       .  S
O36          C37   1.281       .  A
C37        C1144   1.450       .  S
O38          H57   0.990       .  S
O38          H61   0.987       .  S
O39          H53   0.990       .  S
O39          H60   0.990       .  S
O40          C44   1.263       .  A
O41          C44   1.269       .  A
O42          H52   0.990       .  S
O43          H56   0.990       .  S
C44        C1151   1.404       .  S
Zr67         O68   2.439       .  S
Zr67         O69   2.441       .  S
Zr67         O70   2.433       .  S
Zr67         O73   2.531       .  S
Zr67         O75   2.409       .  S
Zr67         O76   2.378       .  S
Zr67         O77   2.438       .  S
Zr67         O78   2.377       .  S
O68         H124   0.990       .  S
O68         H132   0.990       .  S
O69          C89   1.279       .  A
O70          C91   1.284       .  A
O71         Zr81   2.417       .  S
O71          C90   1.279       .  A
O72         Zr80   2.446       .  S
O72          C91   1.287       .  A
O73          C90   1.304       .  A
O74         Zr82   2.389       .  S
O74          C89   1.264       .  A
O75         Zr80   2.398       .  S
O75         Zr82   2.370       .  S
O76         Zr81   2.370       .  S
O76         Zr82   2.393       .  S
O76         H111   0.966       .  S
O77         Zr80   2.421       .  S
O77         Zr97   2.405       .  S
O77         H114   0.966       .  S
O78         Zr81   2.385       .  S
O78         Zr97   2.413       .  S
Zr79        O104   2.434       .  S
Zr79         O98   2.452       .  S
Zr79        O106   2.382       .  S
Zr79         O94   2.410       .  S
Zr79         O85   2.413       .  S
Zr79         O86   2.400       .  S
Zr79         O87   2.385       .  S
Zr79         O88   2.398       .  S
Zr80         O99   2.433       .  S
Zr80         O92   2.434       .  S
Zr80         O93   2.484       .  S
Zr80         O86   2.408       .  S
Zr80         O87   2.396       .  S
Zr81         O83   2.437       .  S
Zr81        O105   2.432       .  S
Zr81        O107   2.462       .  S
Zr81         O85   2.386       .  S
Zr81         O88   2.356       .  S
Zr82        O108   2.438       .  S
Zr82        O109   2.435       .  S
Zr82         O84   2.436       .  S
Zr82         O85   2.378       .  S
Zr82         O86   2.375       .  S
O83         H120   0.990       .  S
O84         H115   0.990       .  S
O84         H129   0.990       .  S
O86         H112   0.965       .  S
O87         Zr97   2.386       .  S
O88         Zr97   2.367       .  S
O88         H113   0.961       .  S
C89        C1139   1.420       .  S
C90        C1135   1.477       .  S
C91        C1131   1.439       .  S
O92         H128   0.990       .  S
O93          C95   1.290       .  A
O94          C95   1.276       .  A
C95        C1137   1.449       .  S
O96         Zr97   2.440       .  S
O96         H125   0.990       .  S
Zr97        O100   2.435       .  S
Zr97        O101   2.440       .  S
Zr97        O102   2.457       .  S
O98         C103   1.287       .  A
O99         H116   0.990       .  S
O99         H131   0.990       .  S
O100        H117   0.990       .  S
O101        H121   0.990       .  S
O101        H130   0.989       .  S
O102        C103   1.287       .  A
C103       C1133   1.448       .  S
O104        H123   0.990       .  S
O104        H127   0.988       .  S
O105        H119   0.989       .  S
O105        H126   0.990       .  S
O106        C110   1.262       .  A
O107        C110   1.280       .  A
O108        H118   0.990       .  S
O109        H122   0.990       .  S
C110       C1152   1.406   1_655  S
Zr133       O134   2.439   1_455  S
Zr133       O136   2.414       .  S
Zr133      O1287   2.435       .  S
Zr133      O1291   2.536   1_455  S
Zr133       O141   2.419       .  S
Zr133       O142   2.385       .  S
Zr133       O143   2.439       .  S
Zr133       O144   2.376   1_455  S
O134        H198   0.990       .  S
O134       H1342   0.990   1_655  S
O135      Zr1285   2.435   1_554  S
O135        C155   1.278       .  A
O136        C157   1.280       .  A
O137      Zr1299   2.404   1_654  S
O137        C156   1.276       .  A
O138       Zr146   2.454       .  S
O138        C157   1.289       .  A
O139      Zr1285   2.536   1_654  S
O139        C156   1.305       .  A
O140      Zr1300   2.391   1_554  S
O140        C155   1.263       .  A
O141       Zr146   2.393       .  S
O141       Zr148   2.355       .  S
O142       Zr147   2.374       .  S
O142       Zr148   2.403       .  S
O142       H1329   0.966       .  S
O143       Zr146   2.429       .  S
O143       Zr163   2.395   1_455  S
O143        H180   0.966       .  S
O144       Zr147   2.387   1_655  S
O144       Zr163   2.412       .  S
Zr145       O170   2.452       .  S
Zr145       O164   2.482       .  S
Zr145       O172   2.384       .  S
Zr145       O160   2.406       .  S
Zr145       O151   2.400       .  S
Zr145       O152   2.421       .  S
Zr145       O153   2.385       .  S
Zr145       O154   2.387       .  S
Zr146       O165   2.433       .  S
Zr146       O158   2.434       .  S
Zr146       O159   2.509       .  S
Zr146       O152   2.395       .  S
Zr146       O153   2.397       .  S
Zr147       O149   2.440   1_455  S
Zr147       O171   2.443       .  S
Zr147       O173   2.397       .  S
Zr147      O1289   2.404   1_455  S
Zr147       O151   2.388       .  S
Zr147       O154   2.400       .  S
Zr148       O174   2.437       .  S
Zr148       O175   2.435       .  S
Zr148       O150   2.435       .  S
Zr148      O1292   2.391       .  S
Zr148       O151   2.355       .  S
Zr148       O152   2.390       .  S
O149        H186   0.990       .  S
O150        H181   0.990       .  S
O150        H195   0.990       .  S
O152        H178   0.964       .  S
O153       Zr163   2.390   1_455  S
O154       Zr163   2.384   1_455  S
O154        H179   0.962   1_455  S
C155       C1148   1.419       .  S
C156       C1136   1.476       .  S
C157       C1128   1.432       .  S
O158        H194   0.990       .  S
O159        C161   1.297       .  A
O160        C161   1.276       .  A
C161       C1149   1.454       .  S
O162       Zr163   2.440       .  S
O162        H191   0.990       .  S
Zr163       O166   2.437       .  S
Zr163       O167   2.439       .  S
Zr163       O168   2.425       .  S
O164        C169   1.292   1_455  A
O165        H182   0.990       .  S
O165        H197   0.990       .  S
O166        H183   0.990       .  S
O167        H187   0.990       .  S
O167        H196   0.990       .  S
O168        C169   1.280       .  A
C169       C1134   1.448       .  S
O170        H189   0.989       .  S
O170        H193   0.989       .  S
O171        H185   0.990       .  S
O171       H1344   0.990       .  S
O172        C176   1.263       .  A
O173        C176   1.269       .  A
O174        H184   0.990       .  S
O175        H188   0.990       .  S
C176       C1129   1.404       .  S
H177       O1294   0.966   1_554  S
H190       O1286   0.990   1_455  S
H192       O1323   0.990       .  S
Zr199       O200   2.439   1_655  S
Zr199       O202   2.426       .  S
Zr199      O1353   2.441       .  S
Zr199      O1357   2.530   1_655  S
Zr199       O207   2.409       .  S
Zr199       O208   2.375       .  S
Zr199       O209   2.439   1_655  S
Zr199       O210   2.374   1_655  S
O200        H264   0.990       .  S
O200       H1408   0.990       .  S
O201      Zr1351   2.441   1_554  S
O201        C221   1.280       .  A
O202        C223   1.283       .  A
O203      Zr1365   2.416       .  S
O203        C222   1.279   1_556  A
O204       Zr212   2.444       .  S
O204        C223   1.286       .  A
O205      Zr1351   2.530   1_454  S
O205        C222   1.304       .  A
O206      Zr1366   2.389   1_554  S
O206        C221   1.264       .  A
O207       Zr212   2.396       .  S
O207       Zr214   2.368       .  S
O208       Zr213   2.368   1_655  S
O208       Zr214   2.393       .  S
O208       H1395   0.966       .  S
O209       Zr212   2.421   1_455  S
O209       Zr229   2.406       .  S
O209        H246   0.966       .  S
O210       Zr213   2.383       .  S
O210       Zr229   2.414       .  S
Zr211       O236   2.434       .  S
Zr211       O230   2.454   1_655  S
Zr211       O238   2.383       .  S
Zr211       O226   2.411       .  S
Zr211       O217   2.414       .  S
Zr211       O218   2.400       .  S
Zr211       O219   2.385       .  S
Zr211       O220   2.398   1_655  S
Zr212       O231   2.433       .  S
Zr212       O224   2.434       .  S
Zr212       O225   2.483       .  S
Zr212       O218   2.408       .  S
Zr212       O219   2.396       .  S
Zr213       O215   2.438       .  S
Zr213       O237   2.432   1_455  S
Zr213       O239   2.459   1_455  S
Zr213      O1355   2.416       .  S
Zr213       O217   2.386   1_455  S
Zr213       O220   2.358       .  S
Zr214       O240   2.438       .  S
Zr214       O241   2.435       .  S
Zr214       O216   2.436       .  S
Zr214      O1358   2.389       .  S
Zr214       O217   2.377       .  S
Zr214       O218   2.375       .  S
O215        H252   0.990       .  S
O216        H247   0.990       .  S
O216        H261   0.990       .  S
O218        H244   0.965       .  S
O219       Zr229   2.386   1_655  S
O220       Zr229   2.367       .  S
O220        H245   0.961       .  S
C221       C1140   1.420       .  S
C222       C1145   1.476       .  S
C223       C1125   1.435   1_565  S
O224        H260   0.990       .  S
O225        C227   1.290       .  A
O226        C227   1.276       .  A
C227       C1138   1.449       .  S
O228       Zr229   2.440       .  S
O228        H257   0.990       .  S
Zr229       O232   2.435       .  S
Zr229       O233   2.440       .  S
Zr229       O234   2.458       .  S
O230        C235   1.287       .  A
O231        H248   0.990   1_565  S
O231        H263   0.990   1_565  S
O232        H249   0.990       .  S
O233        H253   0.990       .  S
O233        H262   0.989       .  S
O234        C235   1.288       .  A
C235       C1143   1.449       .  S
O236        H255   0.990       .  S
O236        H259   0.988       .  S
O237        H251   0.989       .  S
O237       H1410   0.990       .  S
O238        C242   1.262       .  A
O239        C242   1.279       .  A
O240        H250   0.990       .  S
O241        H254   0.990       .  S
C242       C1130   1.405   1_655  S
H243       O1360   0.966   1_554  S
H256       O1352   0.990       .  S
H258       O1389   0.990       .  S
Zr265       O266   2.439       .  S
Zr265       O267   2.438       .  S
Zr265       O268   2.433       .  S
Zr265       O271   2.534       .  S
Zr265       O273   2.409       .  S
Zr265       O274   2.377       .  S
Zr265       O275   2.437       .  S
Zr265       O276   2.376       .  S
O266        H322   0.990       .  S
O266        H330   0.990       .  S
O267        C287   1.279       .  A
O268        C289   1.284       .  A
O269       Zr279   2.414       .  S
O269        C288   1.278       .  A
O270       Zr278   2.448       .  S
O270        C289   1.287       .  A
O271        C288   1.304       .  A
O272       Zr280   2.391       .  S
O272        C287   1.264       .  A
O273       Zr278   2.397       .  S
O273       Zr280   2.367       .  S
O274       Zr279   2.373       .  S
O274       Zr280   2.391       .  S
O274        H309   0.966       .  S
O275       Zr278   2.422       .  S
O275       Zr295   2.400       .  S
O275        H312   0.966       .  S
O276       Zr279   2.386       .  S
O276       Zr295   2.411       .  S
Zr277       O302   2.442   1_554  S
Zr277       O304   2.380   1_554  S
Zr277      O1448   2.459   1_554  S
Zr277      O1444   2.410   1_554  S
Zr277       O283   2.415       .  S
Zr277       O284   2.400       .  S
Zr277       O285   2.386       .  S
Zr277       O286   2.398       .  S
Zr278       O297   2.433       .  S
Zr278       O290   2.434       .  S
Zr278      O1443   2.489   1_554  S
Zr278       O284   2.407       .  S
Zr278       O285   2.394       .  S
Zr279       O281   2.437       .  S
Zr279       O303   2.433       .  S
Zr279       O305   2.463       .  S
Zr279       O283   2.385       .  S
Zr279       O286   2.356       .  S
Zr280       O306   2.438       .  S
Zr280       O307   2.436       .  S
Zr280       O282   2.436       .  S
Zr280       O283   2.381       .  S
Zr280       O284   2.375       .  S
O281        H318   0.990       .  S
O282        H313   0.990       .  S
O282        H327   0.990       .  S
O284        H310   0.964       .  S
O285       Zr295   2.388       .  S
O286       Zr295   2.369       .  S
O286        H311   0.961       .  S
C287       C1122   1.418       .  S
C288       C1118   1.477       .  S
C289       C1132   1.439       .  S
O290        H326   0.990       .  S
O291      Zr1430   2.489       .  S
O291        C293   1.291       .  A
O292      Zr1429   2.410       .  S
O292        C293   1.278       .  A
C293       C1119   1.451       .  S
O294       Zr295   2.440       .  S
O294        H323   0.990       .  S
Zr295       O298   2.435   1_554  S
Zr295       O299   2.440       .  S
Zr295      O1452   2.448   1_554  S
O296      Zr1429   2.459       .  S
O296        C301   1.288       .  A
O297        H314   0.990   1_554  S
O297        H329   0.990       .  S
O298        H315   0.990       .  S
O299        H319   0.990       .  S
O299        H328   0.989       .  S
O300      Zr1447   2.448       .  S
O300        C301   1.285       .  A
C301       C1116   1.448       .  S
O302        H321   0.990       .  S
O302        H325   0.989       .  S
O303        H317   0.989       .  S
O303        H324   0.990       .  S
O304        C308   1.262   1_556  A
O305        C308   1.281       .  A
O306        H316   0.990       .  S
O307        H320   0.990       .  S
C308       C1123   1.408       .  S
Zr331       O332   2.439       .  S
Zr331       O333   2.434       .  S
Zr331       O334   2.417       .  S
Zr331       O337   2.533       .  S
Zr331       O339   2.417       .  S
Zr331       O340   2.386       .  S
Zr331       O341   2.438       .  S
Zr331       O342   2.377       .  S
O332        H388   0.990       .  S
O332        H396   0.990       .  S
O333        C353   1.278       .  A
O334        C355   1.281       .  A
O335       Zr345   2.394       .  S
O335        C354   1.274       .  A
O336       Zr344   2.457       .  S
O336        C355   1.289       .  A
O337        C354   1.304       .  A
O338       Zr346   2.391       .  S
O338        C353   1.263       .  A
O339       Zr344   2.393       .  S
O339       Zr346   2.358       .  S
O340       Zr345   2.374       .  S
O340       Zr346   2.401       .  S
O340        H375   0.966       .  S
O341       Zr344   2.428       .  S
O341       Zr361   2.396       .  S
O341        H378   0.966       .  S
O342       Zr345   2.388       .  S
O342       Zr361   2.411       .  S
Zr343       O368   2.449   1_554  S
Zr343       O370   2.385       .  S
Zr343      O1514   2.468   1_554  S
Zr343      O1510   2.393   1_554  S
Zr343       O349   2.397       .  S
Zr343       O350   2.418       .  S
Zr343       O351   2.385       .  S
Zr343       O352   2.384       .  S
Zr344       O363   2.434       .  S
Zr344       O356   2.434       .  S
Zr344      O1509   2.510   1_554  S
Zr344       O350   2.395       .  S
Zr344       O351   2.396       .  S
Zr345       O347   2.439       .  S
Zr345       O369   2.442       .  S
Zr345       O371   2.390       .  S
Zr345       O349   2.389       .  S
Zr345       O352   2.399       .  S
Zr346       O372   2.437       .  S
Zr346       O373   2.435       .  S
Zr346       O348   2.435       .  S
Zr346       O349   2.358       .  S
Zr346       O350   2.388       .  S
O347        H384   0.990       .  S
O348        H379   0.990       .  S
O348        H393   0.990       .  S
O350        H376   0.964       .  S
O351       Zr361   2.388       .  S
O352       Zr361   2.383       .  S
O352        H377   0.963       .  S
C353       C1113   1.418       .  S
C354       C1109   1.470       .  S
C355       C1142   1.435       .  S
O356        H392   0.990       .  S
O357      Zr1496   2.510       .  S
O357        C359   1.297       .  A
O358      Zr1495   2.393       .  S
O358        C359   1.273       .  A
C359       C1112   1.451       .  S
O360       Zr361   2.440       .  S
O360        H389   0.990       .  S
Zr361       O364   2.437   1_554  S
Zr361       O365   2.439       .  S
Zr361      O1518   2.428   1_554  S
O362      Zr1495   2.468       .  S
O362        C367   1.289       .  A
O363        H380   0.990   1_554  S
O363        H395   0.990       .  S
O364        H381   0.990       .  S
O365        H385   0.990       .  S
O365        H394   0.990       .  S
O366      Zr1513   2.428       .  S
O366        C367   1.281       .  A
C367       C1108   1.445       .  S
O368        H387   0.990       .  S
O368        H391   0.987       .  S
O369        H383   0.990       .  S
O369        H390   0.990       .  S
O370        C374   1.263       .  A
O371        C374   1.267       .  A
O372        H382   0.990       .  S
O373        H386   0.990       .  S
C374       C1124   1.405       .  S
Zr397       O398   2.439       .  S
Zr397       O399   2.434       .  S
Zr397       O400   2.422       .  S
Zr397       O403   2.536       .  S
Zr397       O405   2.414       .  S
Zr397       O406   2.387       .  S
Zr397       O407   2.438       .  S
Zr397       O408   2.374       .  S
O398        H454   0.990       .  S
O398        H462   0.990       .  S
O399        C419   1.278       .  A
O400        C421   1.282       .  A
O401       Zr411   2.404       .  S
O401        C420   1.276       .  A
O402       Zr410   2.460       .  S
O402        C421   1.290       .  A
O403        C420   1.304       .  A
O404       Zr412   2.392       .  S
O404        C419   1.264       .  A
O405       Zr410   2.391       .  S
O405       Zr412   2.363       .  S
O406       Zr411   2.366       .  S
O406       Zr412   2.394       .  S
O406        H441   0.966       .  S
O407       Zr410   2.425       .  S
O407       Zr427   2.399       .  S
O407        H444   0.966       .  S
O408       Zr411   2.386       .  S
O408       Zr427   2.410       .  S
Zr409       O434   2.450       .  S
Zr409       O428   2.471       .  S
Zr409       O436   2.377       .  S
Zr409       O424   2.419       .  S
Zr409       O415   2.409       .  S
Zr409       O416   2.418       .  S
Zr409       O417   2.386       .  S
Zr409       O418   2.390       .  S
Zr410       O429   2.434       .  S
Zr410       O422   2.434       .  S
Zr410       O423   2.498       .  S
Zr410       O416   2.402       .  S
Zr410       O417   2.403       .  S
Zr411       O413   2.436       .  S
Zr411       O435   2.439       .  S
Zr411       O437   2.401       .  S
Zr411       O415   2.386       .  S
Zr411       O418   2.391       .  S
Zr412       O438   2.437       .  S
Zr412       O439   2.435       .  S
Zr412       O414   2.436       .  S
Zr412       O415   2.372       .  S
Zr412       O416   2.380       .  S
O413        H450   0.990       .  S
O414        H445   0.990       .  S
O414        H459   0.990       .  S
O416        H442   0.964       .  S
O417       Zr427   2.388       .  S
O418       Zr427   2.382       .  S
O418        H443   0.963       .  S
C419       C1114   1.418       .  S
C420       C1117   1.476       .  S
C421       C1103   1.440       .  S
O422        H458   0.990       .  S
O423        C425   1.295       .  A
O424        C425   1.279       .  A
C425       C1111   1.454       .  S
O426       Zr427   2.440       .  S
O426        H455   0.990       .  S
Zr427       O430   2.436       .  S
Zr427       O431   2.439       .  S
Zr427       O432   2.431       .  S
O428        C433   1.289       .  A
O429        H446   0.990       .  S
O429        H461   0.990       .  S
O430        H447   0.990       .  S
O431        H451   0.990       .  S
O431        H460   0.990       .  S
O432        C433   1.281       .  A
C433       C1115   1.448       .  S
O434        H453   0.989       .  S
O434        H457   0.989       .  S
O435        H449   0.990       .  S
O435        H456   0.990       .  S
O436        C440   1.264       .  A
O437        C440   1.273       .  A
O438        H448   0.990       .  S
O439        H452   0.990       .  S
C440       C1105   1.422       .  S
Zr463       O464   2.440       .  S
Zr463       O465   2.434       .  S
Zr463       O466   2.422       .  S
Zr463       O469   2.524       .  S
Zr463       O471   2.410       .  S
Zr463       O472   2.386       .  S
Zr463       O473   2.436       .  S
Zr463       O474   2.371       .  S
O464        H520   0.990       .  S
O464        H528   0.990       .  S
O465        C485   1.279       .  A
O466        C487   1.281       .  A
O467       Zr477   2.410       .  S
O467        C486   1.277       .  A
O468       Zr476   2.458       .  S
O468        C487   1.289       .  A
O469        C486   1.302       .  A
O470       Zr478   2.391       .  S
O470        C485   1.264       .  A
O471       Zr476   2.393       .  S
O471       Zr478   2.364       .  S
O472       Zr477   2.370       .  S
O472       Zr478   2.395       .  S
O472        H507   0.966       .  S
O473       Zr476   2.423       .  S
O473       Zr493   2.406       .  S
O473        H510   0.966       .  S
O474       Zr477   2.387       .  S
O474       Zr493   2.407       .  S
Zr475       O500   2.435       .  S
Zr475       O494   2.451       .  S
Zr475       O502   2.384       .  S
Zr475       O490   2.407       .  S
Zr475       O481   2.405       .  S
Zr475       O482   2.414       .  S
Zr475       O483   2.382       .  S
Zr475       O484   2.392       .  S
Zr476       O495   2.433       .  S
Zr476       O488   2.434       .  S
Zr476       O489   2.493       .  S
Zr476       O482   2.404       .  S
Zr476       O483   2.405       .  S
Zr477       O479   2.443       .  S
Zr477       O501   2.441       .  S
Zr477       O503   2.449       .  S
Zr477       O481   2.385       .  S
Zr477       O484   2.387       .  S
Zr478       O504   2.438       .  S
Zr478       O505   2.435       .  S
Zr478       O480   2.436       .  S
Zr478       O481   2.371       .  S
Zr478       O482   2.382       .  S
O479        H516   0.990       .  S
O480        H511   0.990       .  S
O480        H525   0.990       .  S
O482        H508   0.964       .  S
O483       Zr493   2.389       .  S
O484       Zr493   2.383       .  S
O484        H509   0.959       .  S
C485       C1121   1.418       .  S
C486       C1110   1.472       .  S
C487       C1101   1.440   1_565  S
O488        H524   0.990       .  S
O489        C491   1.293       .  A
O490        C491   1.276       .  A
C491       C1120   1.449       .  S
O492       Zr493   2.440       .  S
O492        H521   0.990       .  S
Zr493       O496   2.436       .  S
Zr493       O497   2.439       .  S
Zr493       O498   2.443       .  S
O494        C499   1.284       .  A
O495        H512   0.990       .  S
O495        H527   0.990       .  S
O496        H513   0.990       .  S
O497        H517   0.990       .  S
O497        H526   0.990       .  S
O498        C499   1.283       .  A
C499       C1107   1.445       .  S
O500        H519   0.990       .  S
O500        H523   0.988       .  S
O501        H515   0.990       .  S
O501        H522   0.990       .  S
O502        C506   1.263       .  A
O503        C506   1.276       .  A
O504        H514   0.990       .  S
O505        H518   0.990       .  S
C506       C1106   1.426       .  S
Zr529       O530   2.439       .  S
Zr529       O531   2.438       .  S
Zr529       O532   2.430       .  S
Zr529       O535   2.533       .  S
Zr529       O537   2.409       .  S
Zr529       O538   2.376       .  S
Zr529       O539   2.437       .  S
Zr529       O540   2.375       .  S
O530        H586   0.990       .  S
O530        H594   0.990       .  S
O531        C551   1.279       .  A
O532        C553   1.284       .  A
O533       Zr543   2.415       .  S
O533        C552   1.278       .  A
O534       Zr542   2.446       .  S
O534        C553   1.287       .  A
O535        C552   1.304       .  A
O536       Zr544   2.391       .  S
O536        C551   1.264       .  A
O537       Zr542   2.397       .  S
O537       Zr544   2.367       .  S
O538       Zr543   2.372       .  S
O538       Zr544   2.391       .  S
O538        H573   0.966       .  S
O539       Zr542   2.422       .  S
O539       Zr559   2.400       .  S
O539        H576   0.966       .  S
O540       Zr543   2.386       .  S
O540       Zr559   2.411       .  S
Zr541       O566   2.442       .  S
Zr541       O568   2.382       .  S
Zr541      O1712   2.460       .  S
Zr541      O1708   2.411       .  S
Zr541       O547   2.415       .  S
Zr541       O548   2.400       .  S
Zr541       O549   2.386       .  S
Zr541       O550   2.398       .  S
Zr542       O561   2.433       .  S
Zr542       O554   2.434       .  S
Zr542      O1707   2.488       .  S
Zr542       O548   2.406       .  S
Zr542       O549   2.394       .  S
Zr543       O545   2.437       .  S
Zr543       O567   2.433       .  S
Zr543       O569   2.462       .  S
Zr543       O547   2.385       .  S
Zr543       O550   2.356       .  S
Zr544       O570   2.438       .  S
Zr544       O571   2.436       .  S
Zr544       O546   2.436       .  S
Zr544       O547   2.381       .  S
Zr544       O548   2.374       .  S
O545        H582   0.990       .  S
O546        H577   0.990       .  S
O546        H591   0.990       .  S
O548        H574   0.964       .  S
O549       Zr559   2.388       .  S
O550       Zr559   2.369       .  S
O550        H575   0.961       .  S
C551       C1094   1.418       .  S
C552       C1097   1.476       .  S
C553       C1090   1.437       .  S
O554        H590   0.990       .  S
O555      Zr1694   2.488   1_554  S
O555        C557   1.291       .  A
O556      Zr1693   2.411   1_554  S
O556        C557   1.278       .  A
C557       C1091   1.451       .  S
O558       Zr559   2.440       .  S
O558        H587   0.990       .  S
Zr559       O562   2.435       .  S
Zr559       O563   2.440       .  S
Zr559      O1716   2.448       .  S
O560      Zr1693   2.460   1_554  S
O560        C565   1.288       .  A
O561        H578   0.990       .  S
O561        H593   0.990       .  S
O562        H579   0.990       .  S
O563        H583   0.990       .  S
O563        H592   0.989       .  S
O564      Zr1711   2.448   1_554  S
O564        C565   1.285       .  A
C565       C1095   1.448       .  S
O566        H585   0.990       .  S
O566        H589   0.989       .  S
O567        H581   0.989       .  S
O567        H588   0.990       .  S
O568        C572   1.262       .  A
O569        C572   1.280       .  A
O570        H580   0.990       .  S
O571        H584   0.990       .  S
C572       C1099   1.407       .  S
Zr595       O596   2.439       .  S
Zr595       O597   2.434       .  S
Zr595       O598   2.418       .  S
Zr595       O601   2.534       .  S
Zr595       O603   2.417       .  S
Zr595       O604   2.386       .  S
Zr595       O605   2.438       .  S
Zr595       O606   2.377       .  S
O596        H652   0.990       .  S
O596        H660   0.990       .  S
O597        C617   1.278       .  A
O598        C619   1.281       .  A
O599       Zr609   2.395       .  S
O599        C618   1.275       .  A
O600       Zr608   2.455       .  S
O600        C619   1.289       .  A
O601        C618   1.304       .  A
O602       Zr610   2.391       .  S
O602        C617   1.263       .  A
O603       Zr608   2.393       .  S
O603       Zr610   2.357       .  S
O604       Zr609   2.375       .  S
O604       Zr610   2.401       .  S
O604        H639   0.966       .  S
O605       Zr608   2.429       .  S
O605       Zr625   2.396       .  S
O605        H642   0.966       .  S
O606       Zr609   2.388       .  S
O606       Zr625   2.411       .  S
Zr607       O632   2.449       .  S
Zr607       O634   2.384       .  S
Zr607      O1778   2.469       .  S
Zr607      O1774   2.393       .  S
Zr607       O613   2.398       .  S
Zr607       O614   2.418       .  S
Zr607       O615   2.385       .  S
Zr607       O616   2.384       .  S
Zr608       O627   2.434       .  S
Zr608       O620   2.434       .  S
Zr608      O1773   2.510       .  S
Zr608       O614   2.394       .  S
Zr608       O615   2.396       .  S
Zr609       O611   2.439       .  S
Zr609       O633   2.442       .  S
Zr609       O635   2.391       .  S
Zr609       O613   2.390       .  S
Zr609       O616   2.399       .  S
Zr610       O636   2.437       .  S
Zr610       O637   2.435       .  S
Zr610       O612   2.435       .  S
Zr610       O613   2.358       .  S
Zr610       O614   2.388       .  S
O611        H648   0.990       .  S
O612        H643   0.990       .  S
O612        H657   0.990       .  S
O614        H640   0.964       .  S
O615       Zr625   2.388       .  S
O616       Zr625   2.383       .  S
O616        H641   0.963       .  S
C617       C1083   1.418       .  S
C618       C1088   1.471       .  S
C619       C1080   1.434       .  S
O620        H656   0.990       .  S
O621      Zr1760   2.510   1_554  S
O621        C623   1.297       .  A
O622      Zr1759   2.393   1_554  S
O622        C623   1.274       .  A
C623       C1082   1.451       .  S
O624       Zr625   2.440       .  S
O624        H653   0.990       .  S
Zr625       O628   2.437       .  S
Zr625       O629   2.439       .  S
Zr625      O1782   2.428       .  S
O626      Zr1759   2.469   1_554  S
O626        C631   1.290       .  A
O627        H644   0.990       .  S
O627        H659   0.990       .  S
O628        H645   0.990       .  S
O629        H649   0.990       .  S
O629        H658   0.990       .  S
O630      Zr1777   2.428   1_554  S
O630        C631   1.281       .  A
C631       C1085   1.445       .  S
O632        H651   0.990       .  S
O632        H655   0.987       .  S
O633        H647   0.990       .  S
O633        H654   0.990       .  S
O634        C638   1.263       .  A
O635        C638   1.268       .  A
O636        H646   0.990       .  S
O637        H650   0.990       .  S
C638       C1100   1.405       .  S
Zr661       O662   2.440       .  S
Zr661       O663   2.435       .  S
Zr661       O664   2.422       .  S
Zr661       O667   2.524       .  S
Zr661       O669   2.410       .  S
Zr661       O670   2.385       .  S
Zr661       O671   2.435       .  S
Zr661       O672   2.371       .  S
O662        H718   0.990       .  S
O662        H726   0.990       .  S
O663        C683   1.279       .  A
O664        C685   1.281       .  A
O665       Zr675   2.411       .  S
O665        C684   1.277       .  A
O666       Zr674   2.458       .  S
O666        C685   1.289       .  A
O667        C684   1.302       .  A
O668       Zr676   2.391       .  S
O668        C683   1.264       .  A
O669       Zr674   2.394       .  S
O669       Zr676   2.365       .  S
O670       Zr675   2.371       .  S
O670       Zr676   2.396       .  S
O670        H705   0.966       .  S
O671       Zr674   2.423       .  S
O671       Zr691   2.405       .  S
O671        H708   0.966       .  S
O672       Zr675   2.386       .  S
O672       Zr691   2.408       .  S
Zr673       O698   2.434       .  S
Zr673       O692   2.451       .  S
Zr673       O700   2.387       .  S
Zr673       O688   2.407       .  S
Zr673       O679   2.404       .  S
Zr673       O680   2.412       .  S
Zr673       O681   2.383       .  S
Zr673       O682   2.392       .  S
Zr674       O693   2.433       .  S
Zr674       O686   2.434       .  S
Zr674       O687   2.491       .  S
Zr674       O680   2.405       .  S
Zr674       O681   2.406       .  S
Zr675       O677   2.444       .  S
Zr675       O699   2.441       .  S
Zr675       O701   2.454       .  S
Zr675       O679   2.385       .  S
Zr675       O682   2.385       .  S
Zr676       O702   2.438       .  S
Zr676       O703   2.435       .  S
Zr676       O678   2.436       .  S
Zr676       O679   2.371       .  S
Zr676       O680   2.381       .  S
O677        H714   0.990       .  S
O678        H709   0.990       .  S
O678        H723   0.990       .  S
O680        H706   0.964       .  S
O681       Zr691   2.388       .  S
O682       Zr691   2.383       .  S
O682        H707   0.957       .  S
C683       C1093   1.418       .  S
C684       C1087   1.472       .  S
C685       C1102   1.440       .  S
O686        H722   0.990       .  S
O687        C689   1.293       .  A
O688        C689   1.276       .  A
C689       C1092   1.448       .  S
O690       Zr691   2.440       .  S
O690        H719   0.990       .  S
Zr691       O694   2.436       .  S
Zr691       O695   2.439       .  S
Zr691       O696   2.443       .  S
O692        C697   1.284       .  A
O693        H710   0.990       .  S
O693        H725   0.990       .  S
O694        H711   0.990       .  S
O695        H715   0.990       .  S
O695        H724   0.990       .  S
O696        C697   1.283       .  A
C697       C1086   1.445       .  S
O698        H717   0.991       .  S
O698        H721   0.988       .  S
O699        H713   0.990       .  S
O699        H720   0.990       .  S
O700        C704   1.263       .  A
O701        C704   1.276       .  A
O702        H712   0.990       .  S
O703        H716   0.990       .  S
C704       C1078   1.425       .  S
Zr727       O728   2.439       .  S
Zr727       O729   2.434       .  S
Zr727       O730   2.422       .  S
Zr727       O733   2.536       .  S
Zr727       O735   2.415       .  S
Zr727       O736   2.387       .  S
Zr727       O737   2.438       .  S
Zr727       O738   2.375       .  S
O728        H784   0.990       .  S
O728        H792   0.990       .  S
O729        C749   1.278       .  A
O730        C751   1.282       .  A
O731       Zr741   2.403       .  S
O731        C750   1.276       .  A
O732       Zr740   2.460       .  S
O732        C751   1.290       .  A
O733        C750   1.304       .  A
O734       Zr742   2.392       .  S
O734        C749   1.263       .  A
O735       Zr740   2.391       .  S
O735       Zr742   2.363       .  S
O736       Zr741   2.366       .  S
O736       Zr742   2.395       .  S
O736        H771   0.966       .  S
O737       Zr740   2.425       .  S
O737       Zr757   2.399       .  S
O737        H774   0.966       .  S
O738       Zr741   2.386       .  S
O738       Zr757   2.410       .  S
Zr739       O764   2.450       .  S
Zr739       O758   2.472       .  S
Zr739       O766   2.376       .  S
Zr739       O754   2.418       .  S
Zr739       O745   2.409       .  S
Zr739       O746   2.417       .  S
Zr739       O747   2.386       .  S
Zr739       O748   2.389       .  S
Zr740       O759   2.434       .  S
Zr740       O752   2.434       .  S
Zr740       O753   2.498       .  S
Zr740       O746   2.402       .  S
Zr740       O747   2.402       .  S
Zr741       O743   2.435       .  S
Zr741       O765   2.439       .  S
Zr741       O767   2.394       .  S
Zr741       O745   2.388       .  S
Zr741       O748   2.391       .  S
Zr742       O768   2.437       .  S
Zr742       O769   2.435       .  S
Zr742       O744   2.436       .  S
Zr742       O745   2.372       .  S
Zr742       O746   2.381       .  S
O743        H780   0.990       .  S
O744        H775   0.990       .  S
O744        H789   0.990       .  S
O746        H772   0.964       .  S
O747       Zr757   2.388       .  S
O748       Zr757   2.381       .  S
O748        H773   0.963       .  S
C749       C1084   1.418       .  S
C750       C1098   1.475       .  S
C751       C1104   1.440       .  S
O752        H788   0.990       .  S
O753        C755   1.295       .  A
O754        C755   1.279       .  A
C755       C1081   1.454       .  S
O756       Zr757   2.440       .  S
O756        H785   0.990       .  S
Zr757       O760   2.436       .  S
Zr757       O761   2.439       .  S
Zr757       O762   2.431       .  S
O758        C763   1.289       .  A
O759        H776   0.990       .  S
O759        H791   0.990       .  S
O760        H777   0.990       .  S
O761        H781   0.990       .  S
O761        H790   0.990       .  S
O762        C763   1.281       .  A
C763       C1096   1.448       .  S
O764        H783   0.989       .  S
O764        H787   0.989       .  S
O765        H779   0.990       .  S
O765        H786   0.990       .  S
O766        C770   1.264       .  A
O767        C770   1.273       .  A
O768        H778   0.990       .  S
O769        H782   0.990       .  S
C770       C1077   1.420       .  S
Zr793       O794   2.439       .  S
Zr793       O795   2.435       .  S
Zr793       O796   2.418       .  S
Zr793       O799   2.535       .  S
Zr793       O801   2.418       .  S
Zr793       O802   2.386       .  S
Zr793       O803   2.439       .  S
Zr793       O804   2.377       .  S
O794        H850   0.990       .  S
O794        H858   0.990       .  S
O795        C815   1.278       .  A
O796        C817   1.281       .  A
O797       Zr807   2.402       .  S
O797        C816   1.276       .  A
O798       Zr806   2.455       .  S
O798        C817   1.289       .  A
O799        C816   1.304       .  A
O800       Zr808   2.390       .  S
O800        C815   1.263       .  A
O801       Zr806   2.394       .  S
O801       Zr808   2.359       .  S
O802       Zr807   2.374       .  S
O802       Zr808   2.402       .  S
O802        H837   0.966       .  S
O803       Zr806   2.429       .  S
O803       Zr823   2.396       .  S
O803        H840   0.966       .  S
O804       Zr807   2.388       .  S
O804       Zr823   2.413       .  S
Zr805       O830   2.446       .  S
Zr805       O824   2.478       .  S
Zr805       O832   2.384       .  S
Zr805       O820   2.400       .  S
Zr805       O811   2.401       .  S
Zr805       O812   2.419       .  S
Zr805       O813   2.384       .  S
Zr805       O814   2.384       .  S
Zr806       O825   2.434       .  S
Zr806       O818   2.434       .  S
Zr806       O819   2.510       .  S
Zr806       O812   2.394       .  S
Zr806       O813   2.398       .  S
Zr807       O809   2.439       .  S
Zr807       O831   2.442       .  S
Zr807       O833   2.396       .  S
Zr807       O811   2.390       .  S
Zr807       O814   2.398       .  S
Zr808       O834   2.437       .  S
Zr808       O835   2.435       .  S
Zr808       O810   2.435       .  S
Zr808       O811   2.357       .  S
Zr808       O812   2.388       .  S
O809        H846   0.990       .  S
O810        H841   0.990       .  S
O810        H855   0.990       .  S
O812        H838   0.964       .  S
O813       Zr823   2.389       .  S
O814       Zr823   2.383       .  S
O814        H839   0.962       .  S
C815       C1069   1.419       .  S
C816       C1071   1.475       .  S
C817       C1079   1.434       .  S
O818        H854   0.990       .  S
O819        C821   1.297       .  A
O820        C821   1.275       .  A
C821       C1067   1.453       .  S
O822       Zr823   2.440       .  S
O822        H851   0.990       .  S
Zr823       O826   2.437       .  S
Zr823       O827   2.439       .  S
Zr823       O828   2.429       .  S
O824        C829   1.292       .  A
O825        H842   0.990       .  S
O825        H857   0.990       .  S
O826        H843   0.990       .  S
O827        H847   0.990       .  S
O827        H856   0.990       .  S
O828        C829   1.281       .  A
C829       C1074   1.449       .  S
O830        H849   0.990       .  S
O830        H853   0.987       .  S
O831        H845   0.990       .  S
O831        H852   0.990       .  S
O832        C836   1.263       .  A
O833        C836   1.269       .  A
O834        H844   0.990       .  S
O835        H848   0.990       .  S
C836       C1075   1.405       .  S
Zr859       O860   2.439       .  S
Zr859       O861   2.440       .  S
Zr859       O862   2.430       .  S
Zr859       O865   2.530       .  S
Zr859       O867   2.408       .  S
Zr859       O868   2.377       .  S
Zr859       O869   2.438       .  S
Zr859       O870   2.376       .  S
O860        H916   0.990       .  S
O860        H924   0.990       .  S
O861        C881   1.279       .  A
O862        C883   1.283       .  A
O863       Zr873   2.416       .  S
O863        C882   1.279       .  A
O864       Zr872   2.445       .  S
O864        C883   1.286       .  A
O865        C882   1.304       .  A
O866       Zr874   2.389       .  S
O866        C881   1.264       .  A
O867       Zr872   2.396       .  S
O867       Zr874   2.369       .  S
O868       Zr873   2.370       .  S
O868       Zr874   2.393       .  S
O868        H903   0.966       .  S
O869       Zr872   2.421       .  S
O869       Zr889   2.404       .  S
O869        H906   0.966       .  S
O870       Zr873   2.385       .  S
O870       Zr889   2.413       .  S
Zr871       O896   2.434       .  S
Zr871       O890   2.452       .  S
Zr871       O898   2.383       .  S
Zr871       O886   2.410       .  S
Zr871       O877   2.413       .  S
Zr871       O878   2.400       .  S
Zr871       O879   2.385       .  S
Zr871       O880   2.397       .  S
Zr872       O891   2.433       .  S
Zr872       O884   2.434       .  S
Zr872       O885   2.482       .  S
Zr872       O878   2.408       .  S
Zr872       O879   2.396       .  S
Zr873       O875   2.437       .  S
Zr873       O897   2.433       .  S
Zr873       O899   2.460       .  S
Zr873       O877   2.387       .  S
Zr873       O880   2.356       .  S
Zr874       O900   2.438       .  S
Zr874       O901   2.435       .  S
Zr874       O876   2.436       .  S
Zr874       O877   2.379       .  S
Zr874       O878   2.374       .  S
O875        H912   0.990       .  S
O876        H907   0.990       .  S
O876        H921   0.990       .  S
O878        H904   0.965       .  S
O879       Zr889   2.386       .  S
O880       Zr889   2.366       .  S
O880        H905   0.961       .  S
C881       C1062   1.419       .  S
C882       C1065   1.476       .  S
C883       C1089   1.437       .  S
O884        H920   0.990       .  S
O885        C887   1.289       .  A
O886        C887   1.276       .  A
C887       C1059   1.448       .  S
O888       Zr889   2.440       .  S
O888        H917   0.990       .  S
Zr889       O892   2.435       .  S
Zr889       O893   2.440       .  S
Zr889       O894   2.457       .  S
O890        C895   1.287       .  A
O891        H908   0.990       .  S
O891        H923   0.990       .  S
O892        H909   0.990       .  S
O893        H913   0.990       .  S
O893        H922   0.989       .  S
O894        C895   1.287       .  A
C895       C1063   1.448       .  S
O896        H915   0.990       .  S
O896        H919   0.988       .  S
O897        H911   0.989       .  S
O897        H918   0.990       .  S
O898        C902   1.262       .  A
O899        C902   1.280       .  A
O900        H910   0.990       .  S
O901        H914   0.990       .  S
C902       C1076   1.407   1_655  S
Zr925       O926   2.439   1_654  S
Zr925       O928   2.426       .  S
Zr925      O2079   2.439   1_554  S
Zr925      O2083   2.529   1_654  S
Zr925       O933   2.408       .  S
Zr925       O934   2.376       .  S
Zr925       O935   2.438   1_655  S
Zr925       O936   2.373   1_655  S
O926        H990   0.990       .  S
O926       H2134   0.990       .  S
O927      Zr2077   2.439       .  S
O927        C947   1.279       .  A
O928        C949   1.283       .  A
O929      Zr2091   2.417       .  S
O929        C948   1.279       .  A
O930       Zr938   2.443       .  S
O930        C949   1.286       .  A
O931      Zr2077   2.529   1_455  S
O931        C948   1.303       .  A
O932      Zr2092   2.389       .  S
O932        C947   1.264       .  A
O933       Zr938   2.396       .  S
O933       Zr940   2.368       .  S
O934       Zr939   2.369   1_655  S
O934       Zr940   2.394       .  S
O934        H969   0.966   1_554  S
O935       Zr938   2.420   1_455  S
O935       Zr955   2.405       .  S
O935        H972   0.966       .  S
O936       Zr939   2.383       .  S
O936       Zr955   2.412       .  S
Zr937       O962   2.434       .  S
Zr937       O956   2.454   1_655  S
Zr937       O964   2.383       .  S
Zr937       O952   2.411       .  S
Zr937       O943   2.413       .  S
Zr937       O944   2.400       .  S
Zr937       O945   2.385       .  S
Zr937       O946   2.398   1_655  S
Zr938       O957   2.433       .  S
Zr938       O950   2.434       .  S
Zr938       O951   2.481       .  S
Zr938       O944   2.408       .  S
Zr938       O945   2.396       .  S
Zr939       O941   2.439       .  S
Zr939       O963   2.433   1_455  S
Zr939       O965   2.462   1_455  S
Zr939      O2081   2.417       .  S
Zr939       O943   2.386   1_455  S
Zr939       O946   2.358       .  S
Zr940       O966   2.438   1_554  S
Zr940       O967   2.435       .  S
Zr940       O942   2.436       .  S
Zr940      O2084   2.389   1_554  S
Zr940       O943   2.377       .  S
Zr940       O944   2.375       .  S
O941        H978   0.990       .  S
O942        H973   0.990       .  S
O942        H987   0.990       .  S
O944        H970   0.965       .  S
O945       Zr955   2.386   1_655  S
O946       Zr955   2.368       .  S
O946        H971   0.960       .  S
C947       C1061   1.419       .  S
C948       C1072   1.476       .  S
C949       C1126   1.435       .  S
O950        H986   0.990       .  S
O951        C953   1.289       .  A
O952        C953   1.276       .  A
C953       C1060   1.448       .  S
O954       Zr955   2.440       .  S
O954        H983   0.990       .  S
Zr955       O958   2.435       .  S
Zr955       O959   2.440       .  S
Zr955       O960   2.456       .  S
O956        C961   1.287       .  A
O957        H974   0.990       .  S
O957        H989   0.990       .  S
O958        H975   0.990       .  S
O959        H979   0.990       .  S
O959        H988   0.989       .  S
O960        C961   1.287       .  A
C961       C1073   1.449       .  S
O962        H981   0.990       .  S
O962        H985   0.988       .  S
O963        H977   0.989   1_554  S
O963       H2136   0.990       .  S
O964        C968   1.262       .  A
O965        C968   1.280       .  A
O966        H976   0.990       .  S
O967        H980   0.990       .  S
C968       C1058   1.405   1_655  S
H982       O2078   0.990       .  S
H984       O2115   0.990       .  S
Zr991       O992   2.439   1_454  S
Zr991       O994   2.413       .  S
Zr991      O2145   2.436   1_554  S
Zr991      O2149   2.535   1_454  S
Zr991       O999   2.418       .  S
Zr991      O1000   2.384       .  S
Zr991      O1001   2.439       .  S
Zr991      O1002   2.376   1_455  S
O992       H1056   0.990       .  S
O992       H2200   0.990   1_655  S
O993      Zr2143   2.436       .  S
O993       C1013   1.278       .  A
O994       C1015   1.280       .  A
O995      Zr2157   2.403   1_655  S
O995       C1014   1.276       .  A
O996      Zr1004   2.454       .  S
O996       C1015   1.289       .  A
O997      Zr2143   2.535   1_655  S
O997       C1014   1.304       .  A
O998      Zr2158   2.390       .  S
O998       C1013   1.263       .  A
O999      Zr1004   2.393       .  S
O999      Zr1006   2.356       .  S
O1000     Zr1005   2.373       .  S
O1000     Zr1006   2.402       .  S
O1000      H1035   0.966   1_554  S
O1001     Zr1004   2.428       .  S
O1001     Zr1021   2.395   1_455  S
O1001      H1038   0.966       .  S
O1002     Zr1005   2.387   1_655  S
O1002     Zr1021   2.413       .  S
Zr1003     O1028   2.452       .  S
Zr1003     O1022   2.481       .  S
Zr1003     O1030   2.385       .  S
Zr1003     O1018   2.408       .  S
Zr1003     O1009   2.400       .  S
Zr1003     O1010   2.420       .  S
Zr1003     O1011   2.385       .  S
Zr1003     O1012   2.387       .  S
Zr1004     O1023   2.433       .  S
Zr1004     O1016   2.434       .  S
Zr1004     O1017   2.506       .  S
Zr1004     O1010   2.395       .  S
Zr1004     O1011   2.397       .  S
Zr1005     O1007   2.440   1_455  S
Zr1005     O1029   2.443   1_554  S
Zr1005     O1031   2.395       .  S
Zr1005     O2147   2.403   1_454  S
Zr1005     O1009   2.387       .  S
Zr1005     O1012   2.399       .  S
Zr1006     O1032   2.437   1_554  S
Zr1006     O1033   2.435       .  S
Zr1006     O1008   2.435       .  S
Zr1006     O2150   2.390   1_554  S
Zr1006     O1009   2.355       .  S
Zr1006     O1010   2.389       .  S
O1007      H1044   0.990       .  S
O1008      H1039   0.990       .  S
O1008      H1053   0.990       .  S
O1010      H1036   0.964       .  S
O1011     Zr1021   2.390   1_455  S
O1012     Zr1021   2.383   1_455  S
O1012      H1037   0.962   1_455  S
C1013      C1070   1.419       .  S
C1014      C1066   1.475       .  S
C1015      C1127   1.432       .  S
O1016      H1052   0.990       .  S
O1017      C1019   1.296       .  A
O1018      C1019   1.277       .  A
C1019      C1068   1.454       .  S
O1020     Zr1021   2.440       .  S
O1020      H1049   0.990       .  S
Zr1021     O1024   2.437       .  S
Zr1021     O1025   2.439       .  S
Zr1021     O1026   2.427       .  S
O1022      C1027   1.292   1_455  A
O1023      H1040   0.990       .  S
O1023      H1055   0.990       .  S
O1024      H1041   0.990       .  S
O1025      H1045   0.990       .  S
O1025      H1054   0.990       .  S
O1026      C1027   1.280       .  A
C1027      C1064   1.449       .  S
O1028      H1047   0.989       .  S
O1028      H1051   0.989       .  S
O1029      H1043   0.990       .  S
O1029      H2202   0.990   1_556  S
O1030      C1034   1.263       .  A
O1031      C1034   1.269       .  A
O1032      H1042   0.990       .  S
O1033      H1046   0.990       .  S
C1034      C1057   1.403       .  S
H1048      O2144   0.990   1_455  S
H1050      O2181   0.990       .  S
C1057      C1058   1.186       .  T
C1059      C1060   1.215       .  T
C1061      C1062   1.197       .  T
C1063      C1064   1.214       .  T
C1065      C1066   1.231       .  T
C1067      C1068   1.219       .  T
C1069      C1070   1.198       .  T
C1071      C1072   1.231       .  T
C1073      C1074   1.215       .  T
C1075      C1076   1.186       .  T
C1077      C1078   1.196       .  T
C1079      C1080   1.206       .  T
C1081      C1082   1.219       .  T
C1083      C1084   1.197       .  T
C1085      C1086   1.212       .  T
C1087      C1088   1.229       .  T
C1089      C1090   1.207       .  T
C1091      C1092   1.217       .  T
C1093      C1094   1.197       .  T
C1095      C1096   1.214       .  T
C1097      C1098   1.232       .  T
C1099      C1100   1.187       .  T
C1101      C1102   1.209       .  T
C1103      C1104   1.209       .  T
C1105      C1106   1.197       .  T
C1107      C1108   1.212       .  T
C1109      C1110   1.229       .  T
C1111      C1112   1.219       .  T
C1113      C1114   1.197       .  T
C1115      C1116   1.214       .  T
C1117      C1118   1.232       .  T
C1119      C1120   1.217       .  T
C1121      C1122   1.197       .  T
C1123      C1124   1.187       .  T
C1125      C2278   1.206       .  T
C1126      C2277   1.206   1_554  T
C1127      C2280   1.204   1_554  T
C1128      C2279   1.204       .  T
C1129      C1130   1.185       .  T
C1131      C1132   1.208       .  T
C1133      C1134   1.214       .  T
C1135      C1136   1.232       .  T
C1137      C1138   1.216       .  T
C1139      C1140   1.198       .  T
C1141      C1142   1.206       .  T
C1143      C1144   1.215       .  T
C1145      C1146   1.231       .  T
C1147      C1148   1.198       .  T
C1149      C1150   1.220       .  T
C1151      C1152   1.186       .  T
Zr1153     O1154   2.439       .  S
Zr1153     O1155   2.435       .  S
Zr1153     O1156   2.416       .  S
Zr1153     O1159   2.535       .  S
Zr1153     O1161   2.418       .  S
Zr1153     O1162   2.386       .  S
Zr1153     O1163   2.439       .  S
Zr1153     O1164   2.377       .  S
O1154      H1210   0.990       .  S
O1154      H1218   0.990       .  S
O1155      C1175   1.278       .  A
O1156      C1177   1.281       .  A
O1157     Zr1167   2.402       .  S
O1157      C1176   1.276       .  A
O1158     Zr1166   2.458       .  S
O1158      C1177   1.290       .  A
O1159      C1176   1.304       .  A
O1160     Zr1168   2.390       .  S
O1160      C1175   1.263       .  A
O1161     Zr1166   2.393       .  S
O1161     Zr1168   2.358       .  S
O1162     Zr1167   2.374       .  S
O1162     Zr1168   2.402       .  S
O1162      H1197   0.966       .  S
O1163     Zr1166   2.429       .  S
O1163     Zr1183   2.397       .  S
O1163      H1200   0.966       .  S
O1164     Zr1167   2.388       .  S
O1164     Zr1183   2.413       .  S
Zr1165     O1190   2.446       .  S
Zr1165     O1184   2.480       .  S
Zr1165     O1192   2.383       .  S
Zr1165     O1180   2.402       .  S
Zr1165     O1171   2.401       .  S
Zr1165     O1172   2.420       .  S
Zr1165     O1173   2.384       .  S
Zr1165     O1174   2.385       .  S
Zr1166     O1185   2.434       .  S
Zr1166     O1178   2.434       .  S
Zr1166     O1179   2.511       .  S
Zr1166     O1172   2.394       .  S
Zr1166     O1173   2.398       .  S
Zr1167     O1169   2.439       .  S
Zr1167     O1191   2.442       .  S
Zr1167     O1193   2.395       .  S
Zr1167     O1171   2.391       .  S
Zr1167     O1174   2.398       .  S
Zr1168     O1194   2.437       .  S
Zr1168     O1195   2.435       .  S
Zr1168     O1170   2.435       .  S
Zr1168     O1171   2.357       .  S
Zr1168     O1172   2.388       .  S
O1169      H1206   0.990       .  S
O1170      H1201   0.990       .  S
O1170      H1215   0.990       .  S
O1172      H1198   0.964       .  S
O1173     Zr1183   2.389       .  S
O1174     Zr1183   2.383       .  S
O1174      H1199   0.962       .  S
C1175      C2299   1.419       .  S
C1176      C2298   1.475       .  S
C1177      C2293   1.435       .  S
O1178      H1214   0.990       .  S
O1179      C1181   1.297       .  A
O1180      C1181   1.275       .  A
C1181      C2302   1.454       .  S
O1182     Zr1183   2.440       .  S
O1182      H1211   0.990       .  S
Zr1183     O1186   2.437       .  S
Zr1183     O1187   2.439       .  S
Zr1183     O1188   2.430       .  S
O1184      C1189   1.292       .  A
O1185      H1202   0.990       .  S
O1185      H1217   0.990       .  S
O1186      H1203   0.990       .  S
O1187      H1207   0.990       .  S
O1187      H1216   0.990       .  S
O1188      C1189   1.281       .  A
C1189      C2296   1.450       .  S
O1190      H1209   0.990       .  S
O1190      H1213   0.987       .  S
O1191      H1205   0.990       .  S
O1191      H1212   0.990       .  S
O1192      C1196   1.263       .  A
O1193      C1196   1.269       .  A
O1194      H1204   0.990       .  S
O1195      H1208   0.990       .  S
C1196      C2303   1.404       .  S
Zr1219     O1220   2.439       .  S
Zr1219     O1221   2.441       .  S
Zr1219     O1222   2.433       .  S
Zr1219     O1225   2.531       .  S
Zr1219     O1227   2.409       .  S
Zr1219     O1228   2.378       .  S
Zr1219     O1229   2.438       .  S
Zr1219     O1230   2.377       .  S
O1220      H1276   0.990       .  S
O1220      H1284   0.990       .  S
O1221      C1241   1.279       .  A
O1222      C1243   1.284       .  A
O1223     Zr1233   2.417       .  S
O1223      C1242   1.279       .  A
O1224     Zr1232   2.446       .  S
O1224      C1243   1.287       .  A
O1225      C1242   1.304       .  A
O1226     Zr1234   2.389       .  S
O1226      C1241   1.264       .  A
O1227     Zr1232   2.398       .  S
O1227     Zr1234   2.370       .  S
O1228     Zr1233   2.370       .  S
O1228     Zr1234   2.393       .  S
O1228      H1263   0.966       .  S
O1229     Zr1232   2.421       .  S
O1229     Zr1249   2.405       .  S
O1229      H1266   0.966       .  S
O1230     Zr1233   2.385       .  S
O1230     Zr1249   2.413       .  S
Zr1231     O1256   2.434       .  S
Zr1231     O1250   2.452       .  S
Zr1231     O1258   2.382       .  S
Zr1231     O1246   2.410       .  S
Zr1231     O1237   2.413       .  S
Zr1231     O1238   2.400       .  S
Zr1231     O1239   2.385       .  S
Zr1231     O1240   2.398       .  S
Zr1232     O1251   2.433       .  S
Zr1232     O1244   2.434       .  S
Zr1232     O1245   2.484       .  S
Zr1232     O1238   2.408       .  S
Zr1232     O1239   2.396       .  S
Zr1233     O1235   2.437       .  S
Zr1233     O1257   2.432       .  S
Zr1233     O1259   2.462       .  S
Zr1233     O1237   2.386       .  S
Zr1233     O1240   2.356       .  S
Zr1234     O1260   2.438       .  S
Zr1234     O1261   2.435       .  S
Zr1234     O1236   2.436       .  S
Zr1234     O1237   2.378       .  S
Zr1234     O1238   2.375       .  S
O1235      H1272   0.990       .  S
O1236      H1267   0.990       .  S
O1236      H1281   0.990       .  S
O1238      H1264   0.965       .  S
O1239     Zr1249   2.386       .  S
O1240     Zr1249   2.367       .  S
O1240      H1265   0.961       .  S
C1241      C2291   1.420       .  S
C1242      C2287   1.477       .  S
C1243      C2283   1.439       .  S
O1244      H1280   0.990       .  S
O1245      C1247   1.290       .  A
O1246      C1247   1.276       .  A
C1247      C2289   1.449       .  S
O1248     Zr1249   2.440       .  S
O1248      H1277   0.990       .  S
Zr1249     O1252   2.435       .  S
Zr1249     O1253   2.440       .  S
Zr1249     O1254   2.457       .  S
O1250      C1255   1.287       .  A
O1251      H1268   0.990       .  S
O1251      H1283   0.990       .  S
O1252      H1269   0.990       .  S
O1253      H1273   0.990       .  S
O1253      H1282   0.989       .  S
O1254      C1255   1.287       .  A
C1255      C2285   1.448       .  S
O1256      H1275   0.990       .  S
O1256      H1279   0.988       .  S
O1257      H1271   0.989       .  S
O1257      H1278   0.990       .  S
O1258      C1262   1.262       .  A
O1259      C1262   1.280       .  A
O1260      H1270   0.990       .  S
O1261      H1274   0.990       .  S
C1262      C2304   1.406   1_655  S
Zr1285     O1286   2.439   1_456  S
Zr1285     O1288   2.414       .  S
Zr1285     O1293   2.419       .  S
Zr1285     O1294   2.385       .  S
Zr1285     O1295   2.439       .  S
Zr1285     O1296   2.376   1_455  S
O1286      H1350   0.990       .  S
O1287      C1307   1.278       .  A
O1288      C1309   1.280       .  A
O1289      C1308   1.276       .  A
O1290     Zr1298   2.454       .  S
O1290      C1309   1.289       .  A
O1291      C1308   1.305       .  A
O1292      C1307   1.263       .  A
O1293     Zr1298   2.393       .  S
O1293     Zr1300   2.355       .  S
O1294     Zr1299   2.374       .  S
O1294     Zr1300   2.403       .  S
O1295     Zr1298   2.429       .  S
O1295     Zr1315   2.395   1_455  S
O1295      H1332   0.966       .  S
O1296     Zr1299   2.387   1_655  S
O1296     Zr1315   2.412       .  S
Zr1297     O1322   2.452       .  S
Zr1297     O1316   2.482       .  S
Zr1297     O1324   2.384       .  S
Zr1297     O1312   2.406       .  S
Zr1297     O1303   2.400       .  S
Zr1297     O1304   2.421       .  S
Zr1297     O1305   2.385       .  S
Zr1297     O1306   2.387       .  S
Zr1298     O1317   2.433       .  S
Zr1298     O1310   2.434       .  S
Zr1298     O1311   2.509       .  S
Zr1298     O1304   2.395       .  S
Zr1298     O1305   2.397       .  S
Zr1299     O1301   2.440   1_455  S
Zr1299     O1323   2.443   1_556  S
Zr1299     O1325   2.397       .  S
Zr1299     O1303   2.388       .  S
Zr1299     O1306   2.400       .  S
Zr1300     O1326   2.437   1_556  S
Zr1300     O1327   2.435       .  S
Zr1300     O1302   2.435       .  S
Zr1300     O1303   2.355       .  S
Zr1300     O1304   2.390       .  S
O1301      H1338   0.990       .  S
O1302      H1333   0.990       .  S
O1302      H1347   0.990       .  S
O1304      H1330   0.964       .  S
O1305     Zr1315   2.390   1_455  S
O1306     Zr1315   2.384   1_455  S
O1306      H1331   0.962   1_455  S
C1307      C2300   1.419       .  S
C1308      C2288   1.476       .  S
C1309      C2280   1.432       .  S
O1310      H1346   0.990       .  S
O1311      C1313   1.297       .  A
O1312      C1313   1.276       .  A
C1313      C2301   1.454       .  S
O1314     Zr1315   2.440       .  S
O1314      H1343   0.990       .  S
Zr1315     O1318   2.437       .  S
Zr1315     O1319   2.439       .  S
Zr1315     O1320   2.425       .  S
O1316      C1321   1.292   1_455  A
O1317      H1334   0.990       .  S
O1317      H1349   0.990       .  S
O1318      H1335   0.990       .  S
O1319      H1339   0.990       .  S
O1319      H1348   0.990       .  S
O1320      C1321   1.280       .  A
C1321      C2286   1.448       .  S
O1322      H1341   0.989       .  S
O1322      H1345   0.989       .  S
O1323      H1337   0.990       .  S
O1324      C1328   1.263       .  A
O1325      C1328   1.269       .  A
O1326      H1336   0.990       .  S
O1327      H1340   0.990       .  S
C1328      C2281   1.404       .  S
Zr1351     O1352   2.439   1_656  S
Zr1351     O1354   2.426       .  S
Zr1351     O1359   2.409       .  S
Zr1351     O1360   2.375       .  S
Zr1351     O1361   2.439   1_655  S
Zr1351     O1362   2.374   1_655  S
O1352      H1416   0.990       .  S
O1353      C1373   1.280       .  A
O1354      C1375   1.283       .  A
O1355      C1374   1.279       .  A
O1356     Zr1364   2.444       .  S
O1356      C1375   1.286       .  A
O1357      C1374   1.304       .  A
O1358      C1373   1.264       .  A
O1359     Zr1364   2.396       .  S
O1359     Zr1366   2.368       .  S
O1360     Zr1365   2.368   1_655  S
O1360     Zr1366   2.393       .  S
O1361     Zr1364   2.421   1_455  S
O1361     Zr1381   2.406       .  S
O1361      H1398   0.966       .  S
O1362     Zr1365   2.383       .  S
O1362     Zr1381   2.414       .  S
Zr1363     O1388   2.434       .  S
Zr1363     O1382   2.454   1_655  S
Zr1363     O1390   2.383       .  S
Zr1363     O1378   2.411       .  S
Zr1363     O1369   2.414       .  S
Zr1363     O1370   2.400       .  S
Zr1363     O1371   2.385       .  S
Zr1363     O1372   2.398   1_655  S
Zr1364     O1383   2.433       .  S
Zr1364     O1376   2.434       .  S
Zr1364     O1377   2.483       .  S
Zr1364     O1370   2.408       .  S
Zr1364     O1371   2.396       .  S
Zr1365     O1367   2.438       .  S
Zr1365     O1389   2.432   1_455  S
Zr1365     O1391   2.459   1_455  S
Zr1365     O1369   2.386   1_455  S
Zr1365     O1372   2.358       .  S
Zr1366     O1392   2.438   1_556  S
Zr1366     O1393   2.435       .  S
Zr1366     O1368   2.436       .  S
Zr1366     O1369   2.377       .  S
Zr1366     O1370   2.375       .  S
O1367      H1404   0.990       .  S
O1368      H1399   0.990       .  S
O1368      H1413   0.990       .  S
O1370      H1396   0.965       .  S
O1371     Zr1381   2.386   1_655  S
O1372     Zr1381   2.367       .  S
O1372      H1397   0.961       .  S
C1373      C2292   1.420       .  S
C1374      C2297   1.476       .  S
C1375      C2277   1.435   1_565  S
O1376      H1412   0.990       .  S
O1377      C1379   1.290       .  A
O1378      C1379   1.276       .  A
C1379      C2290   1.449       .  S
O1380     Zr1381   2.440       .  S
O1380      H1409   0.990       .  S
Zr1381     O1384   2.435       .  S
Zr1381     O1385   2.440       .  S
Zr1381     O1386   2.458       .  S
O1382      C1387   1.287       .  A
O1383      H1400   0.990   1_565  S
O1383      H1415   0.990   1_565  S
O1384      H1401   0.990       .  S
O1385      H1405   0.990       .  S
O1385      H1414   0.989       .  S
O1386      C1387   1.288       .  A
C1387      C2295   1.449       .  S
O1388      H1407   0.990       .  S
O1388      H1411   0.988       .  S
O1389      H1403   0.989   1_556  S
O1390      C1394   1.262       .  A
O1391      C1394   1.279       .  A
O1392      H1402   0.990       .  S
O1393      H1406   0.990       .  S
C1394      C2282   1.405   1_655  S
Zr1417     O1418   2.439       .  S
Zr1417     O1419   2.438       .  S
Zr1417     O1420   2.433       .  S
Zr1417     O1423   2.534       .  S
Zr1417     O1425   2.409       .  S
Zr1417     O1426   2.377       .  S
Zr1417     O1427   2.437       .  S
Zr1417     O1428   2.376       .  S
O1418      H1474   0.990       .  S
O1418      H1482   0.990       .  S
O1419      C1439   1.279       .  A
O1420      C1441   1.284       .  A
O1421     Zr1431   2.414       .  S
O1421      C1440   1.278       .  A
O1422     Zr1430   2.448       .  S
O1422      C1441   1.287       .  A
O1423      C1440   1.304       .  A
O1424     Zr1432   2.391       .  S
O1424      C1439   1.264       .  A
O1425     Zr1430   2.397       .  S
O1425     Zr1432   2.367       .  S
O1426     Zr1431   2.373       .  S
O1426     Zr1432   2.391       .  S
O1426      H1461   0.966       .  S
O1427     Zr1430   2.422       .  S
O1427     Zr1447   2.400       .  S
O1427      H1464   0.966       .  S
O1428     Zr1431   2.386       .  S
O1428     Zr1447   2.411       .  S
Zr1429     O1454   2.442       .  S
Zr1429     O1456   2.380       .  S
Zr1429     O1435   2.415       .  S
Zr1429     O1436   2.400       .  S
Zr1429     O1437   2.386       .  S
Zr1429     O1438   2.398       .  S
Zr1430     O1449   2.433       .  S
Zr1430     O1442   2.434       .  S
Zr1430     O1436   2.407       .  S
Zr1430     O1437   2.394       .  S
Zr1431     O1433   2.437       .  S
Zr1431     O1455   2.433       .  S
Zr1431     O1457   2.463       .  S
Zr1431     O1435   2.385       .  S
Zr1431     O1438   2.356       .  S
Zr1432     O1458   2.438       .  S
Zr1432     O1459   2.436       .  S
Zr1432     O1434   2.436       .  S
Zr1432     O1435   2.381       .  S
Zr1432     O1436   2.375       .  S
O1433      H1470   0.990       .  S
O1434      H1465   0.990       .  S
O1434      H1479   0.990       .  S
O1436      H1462   0.964       .  S
O1437     Zr1447   2.388       .  S
O1438     Zr1447   2.369       .  S
O1438      H1463   0.961       .  S
C1439      C2274   1.418       .  S
C1440      C2270   1.477       .  S
C1441      C2284   1.439       .  S
O1442      H1478   0.990       .  S
O1443      C1445   1.291       .  A
O1444      C1445   1.278       .  A
C1445      C2271   1.451       .  S
O1446     Zr1447   2.440       .  S
O1446      H1475   0.990       .  S
Zr1447     O1450   2.435       .  S
Zr1447     O1451   2.440       .  S
O1448      C1453   1.288       .  A
O1449      H1466   0.990       .  S
O1449      H1481   0.990       .  S
O1450      H1467   0.990       .  S
O1451      H1471   0.990       .  S
O1451      H1480   0.989       .  S
O1452      C1453   1.285       .  A
C1453      C2268   1.448       .  S
O1454      H1473   0.990       .  S
O1454      H1477   0.989       .  S
O1455      H1469   0.989       .  S
O1455      H1476   0.990       .  S
O1456      C1460   1.262       .  A
O1457      C1460   1.281       .  A
O1458      H1468   0.990       .  S
O1459      H1472   0.990       .  S
C1460      C2275   1.408       .  S
Zr1483     O1484   2.439       .  S
Zr1483     O1485   2.434       .  S
Zr1483     O1486   2.417       .  S
Zr1483     O1489   2.533       .  S
Zr1483     O1491   2.417       .  S
Zr1483     O1492   2.386       .  S
Zr1483     O1493   2.438       .  S
Zr1483     O1494   2.377       .  S
O1484      H1540   0.990       .  S
O1484      H1548   0.990       .  S
O1485      C1505   1.278       .  A
O1486      C1507   1.281       .  A
O1487     Zr1497   2.394       .  S
O1487      C1506   1.274       .  A
O1488     Zr1496   2.457       .  S
O1488      C1507   1.289       .  A
O1489      C1506   1.304       .  A
O1490     Zr1498   2.391       .  S
O1490      C1505   1.263       .  A
O1491     Zr1496   2.393       .  S
O1491     Zr1498   2.358       .  S
O1492     Zr1497   2.374       .  S
O1492     Zr1498   2.401       .  S
O1492      H1527   0.966       .  S
O1493     Zr1496   2.428       .  S
O1493     Zr1513   2.396       .  S
O1493      H1530   0.966       .  S
O1494     Zr1497   2.388       .  S
O1494     Zr1513   2.411       .  S
Zr1495     O1520   2.449       .  S
Zr1495     O1522   2.385       .  S
Zr1495     O1501   2.397       .  S
Zr1495     O1502   2.418       .  S
Zr1495     O1503   2.385       .  S
Zr1495     O1504   2.384       .  S
Zr1496     O1515   2.434       .  S
Zr1496     O1508   2.434       .  S
Zr1496     O1502   2.395       .  S
Zr1496     O1503   2.396       .  S
Zr1497     O1499   2.439       .  S
Zr1497     O1521   2.442       .  S
Zr1497     O1523   2.390       .  S
Zr1497     O1501   2.389       .  S
Zr1497     O1504   2.399       .  S
Zr1498     O1524   2.437       .  S
Zr1498     O1525   2.435       .  S
Zr1498     O1500   2.435       .  S
Zr1498     O1501   2.358       .  S
Zr1498     O1502   2.388       .  S
O1499      H1536   0.990       .  S
O1500      H1531   0.990       .  S
O1500      H1545   0.990       .  S
O1502      H1528   0.964       .  S
O1503     Zr1513   2.388       .  S
O1504     Zr1513   2.383       .  S
O1504      H1529   0.963       .  S
C1505      C2265   1.418       .  S
C1506      C2261   1.470       .  S
C1507      C2294   1.435       .  S
O1508      H1544   0.990       .  S
O1509      C1511   1.297       .  A
O1510      C1511   1.273       .  A
C1511      C2264   1.451       .  S
O1512     Zr1513   2.440       .  S
O1512      H1541   0.990       .  S
Zr1513     O1516   2.437       .  S
Zr1513     O1517   2.439       .  S
O1514      C1519   1.289       .  A
O1515      H1532   0.990       .  S
O1515      H1547   0.990       .  S
O1516      H1533   0.990       .  S
O1517      H1537   0.990       .  S
O1517      H1546   0.990       .  S
O1518      C1519   1.281       .  A
C1519      C2260   1.445       .  S
O1520      H1539   0.990       .  S
O1520      H1543   0.987       .  S
O1521      H1535   0.990       .  S
O1521      H1542   0.990       .  S
O1522      C1526   1.263       .  A
O1523      C1526   1.267       .  A
O1524      H1534   0.990       .  S
O1525      H1538   0.990       .  S
C1526      C2276   1.405       .  S
Zr1549     O1550   2.439       .  S
Zr1549     O1551   2.434       .  S
Zr1549     O1552   2.422       .  S
Zr1549     O1555   2.536       .  S
Zr1549     O1557   2.414       .  S
Zr1549     O1558   2.387       .  S
Zr1549     O1559   2.438       .  S
Zr1549     O1560   2.374       .  S
O1550      H1606   0.990       .  S
O1550      H1614   0.990       .  S
O1551      C1571   1.278       .  A
O1552      C1573   1.282       .  A
O1553     Zr1563   2.404       .  S
O1553      C1572   1.276       .  A
O1554     Zr1562   2.460       .  S
O1554      C1573   1.290       .  A
O1555      C1572   1.304       .  A
O1556     Zr1564   2.392       .  S
O1556      C1571   1.264       .  A
O1557     Zr1562   2.391       .  S
O1557     Zr1564   2.363       .  S
O1558     Zr1563   2.366       .  S
O1558     Zr1564   2.394       .  S
O1558      H1593   0.966       .  S
O1559     Zr1562   2.425       .  S
O1559     Zr1579   2.399       .  S
O1559      H1596   0.966       .  S
O1560     Zr1563   2.386       .  S
O1560     Zr1579   2.410       .  S
Zr1561     O1586   2.450       .  S
Zr1561     O1580   2.471       .  S
Zr1561     O1588   2.377       .  S
Zr1561     O1576   2.419       .  S
Zr1561     O1567   2.409       .  S
Zr1561     O1568   2.418       .  S
Zr1561     O1569   2.386       .  S
Zr1561     O1570   2.390       .  S
Zr1562     O1581   2.434       .  S
Zr1562     O1574   2.434       .  S
Zr1562     O1575   2.498       .  S
Zr1562     O1568   2.402       .  S
Zr1562     O1569   2.403       .  S
Zr1563     O1565   2.436       .  S
Zr1563     O1587   2.439       .  S
Zr1563     O1589   2.401       .  S
Zr1563     O1567   2.386       .  S
Zr1563     O1570   2.391       .  S
Zr1564     O1590   2.437       .  S
Zr1564     O1591   2.435       .  S
Zr1564     O1566   2.436       .  S
Zr1564     O1567   2.372       .  S
Zr1564     O1568   2.380       .  S
O1565      H1602   0.990       .  S
O1566      H1597   0.990       .  S
O1566      H1611   0.990       .  S
O1568      H1594   0.964       .  S
O1569     Zr1579   2.388       .  S
O1570     Zr1579   2.382       .  S
O1570      H1595   0.963       .  S
C1571      C2266   1.418       .  S
C1572      C2269   1.476       .  S
C1573      C2255   1.440       .  S
O1574      H1610   0.990       .  S
O1575      C1577   1.295       .  A
O1576      C1577   1.279       .  A
C1577      C2263   1.454       .  S
O1578     Zr1579   2.440       .  S
O1578      H1607   0.990       .  S
Zr1579     O1582   2.436       .  S
Zr1579     O1583   2.439       .  S
Zr1579     O1584   2.431       .  S
O1580      C1585   1.289       .  A
O1581      H1598   0.990       .  S
O1581      H1613   0.990       .  S
O1582      H1599   0.990       .  S
O1583      H1603   0.990       .  S
O1583      H1612   0.990       .  S
O1584      C1585   1.281       .  A
C1585      C2267   1.448       .  S
O1586      H1605   0.989       .  S
O1586      H1609   0.989       .  S
O1587      H1601   0.990       .  S
O1587      H1608   0.990       .  S
O1588      C1592   1.264       .  A
O1589      C1592   1.273       .  A
O1590      H1600   0.990       .  S
O1591      H1604   0.990       .  S
C1592      C2257   1.422       .  S
Zr1615     O1616   2.440       .  S
Zr1615     O1617   2.434       .  S
Zr1615     O1618   2.422       .  S
Zr1615     O1621   2.524       .  S
Zr1615     O1623   2.410       .  S
Zr1615     O1624   2.386       .  S
Zr1615     O1625   2.436       .  S
Zr1615     O1626   2.371       .  S
O1616      H1672   0.990       .  S
O1616      H1680   0.990       .  S
O1617      C1637   1.279       .  A
O1618      C1639   1.281       .  A
O1619     Zr1629   2.410       .  S
O1619      C1638   1.277       .  A
O1620     Zr1628   2.458       .  S
O1620      C1639   1.289       .  A
O1621      C1638   1.302       .  A
O1622     Zr1630   2.391       .  S
O1622      C1637   1.264       .  A
O1623     Zr1628   2.393       .  S
O1623     Zr1630   2.364       .  S
O1624     Zr1629   2.370       .  S
O1624     Zr1630   2.395       .  S
O1624      H1659   0.966       .  S
O1625     Zr1628   2.423       .  S
O1625     Zr1645   2.406       .  S
O1625      H1662   0.966       .  S
O1626     Zr1629   2.387       .  S
O1626     Zr1645   2.407       .  S
Zr1627     O1652   2.435       .  S
Zr1627     O1646   2.451       .  S
Zr1627     O1654   2.384       .  S
Zr1627     O1642   2.407       .  S
Zr1627     O1633   2.405       .  S
Zr1627     O1634   2.414       .  S
Zr1627     O1635   2.382       .  S
Zr1627     O1636   2.392       .  S
Zr1628     O1647   2.433       .  S
Zr1628     O1640   2.434       .  S
Zr1628     O1641   2.493       .  S
Zr1628     O1634   2.404       .  S
Zr1628     O1635   2.405       .  S
Zr1629     O1631   2.443       .  S
Zr1629     O1653   2.441       .  S
Zr1629     O1655   2.449       .  S
Zr1629     O1633   2.385       .  S
Zr1629     O1636   2.387       .  S
Zr1630     O1656   2.438       .  S
Zr1630     O1657   2.435       .  S
Zr1630     O1632   2.436       .  S
Zr1630     O1633   2.371       .  S
Zr1630     O1634   2.382       .  S
O1631      H1668   0.990       .  S
O1632      H1663   0.990       .  S
O1632      H1677   0.990       .  S
O1634      H1660   0.964       .  S
O1635     Zr1645   2.389       .  S
O1636     Zr1645   2.383       .  S
O1636      H1661   0.959       .  S
C1637      C2273   1.418       .  S
C1638      C2262   1.472       .  S
C1639      C2253   1.440   1_565  S
O1640      H1676   0.990       .  S
O1641      C1643   1.293       .  A
O1642      C1643   1.276       .  A
C1643      C2272   1.449       .  S
O1644     Zr1645   2.440       .  S
O1644      H1673   0.990       .  S
Zr1645     O1648   2.436       .  S
Zr1645     O1649   2.439       .  S
Zr1645     O1650   2.443       .  S
O1646      C1651   1.284       .  A
O1647      H1664   0.990       .  S
O1647      H1679   0.990       .  S
O1648      H1665   0.990       .  S
O1649      H1669   0.990       .  S
O1649      H1678   0.990       .  S
O1650      C1651   1.283       .  A
C1651      C2259   1.445       .  S
O1652      H1671   0.990       .  S
O1652      H1675   0.988       .  S
O1653      H1667   0.990       .  S
O1653      H1674   0.990       .  S
O1654      C1658   1.263       .  A
O1655      C1658   1.276       .  A
O1656      H1666   0.990       .  S
O1657      H1670   0.990       .  S
C1658      C2258   1.426       .  S
Zr1681     O1682   2.439       .  S
Zr1681     O1683   2.438       .  S
Zr1681     O1684   2.430       .  S
Zr1681     O1687   2.533       .  S
Zr1681     O1689   2.409       .  S
Zr1681     O1690   2.376       .  S
Zr1681     O1691   2.437       .  S
Zr1681     O1692   2.375       .  S
O1682      H1738   0.990       .  S
O1682      H1746   0.990       .  S
O1683      C1703   1.279       .  A
O1684      C1705   1.284       .  A
O1685     Zr1695   2.415       .  S
O1685      C1704   1.278       .  A
O1686     Zr1694   2.446       .  S
O1686      C1705   1.287       .  A
O1687      C1704   1.304       .  A
O1688     Zr1696   2.391       .  S
O1688      C1703   1.264       .  A
O1689     Zr1694   2.397       .  S
O1689     Zr1696   2.367       .  S
O1690     Zr1695   2.372       .  S
O1690     Zr1696   2.391       .  S
O1690      H1725   0.966       .  S
O1691     Zr1694   2.422       .  S
O1691     Zr1711   2.400       .  S
O1691      H1728   0.966       .  S
O1692     Zr1695   2.386       .  S
O1692     Zr1711   2.411       .  S
Zr1693     O1718   2.442   1_556  S
Zr1693     O1720   2.382   1_556  S
Zr1693     O1699   2.415       .  S
Zr1693     O1700   2.400       .  S
Zr1693     O1701   2.386       .  S
Zr1693     O1702   2.398       .  S
Zr1694     O1713   2.433       .  S
Zr1694     O1706   2.434       .  S
Zr1694     O1700   2.406       .  S
Zr1694     O1701   2.394       .  S
Zr1695     O1697   2.437       .  S
Zr1695     O1719   2.433       .  S
Zr1695     O1721   2.462       .  S
Zr1695     O1699   2.385       .  S
Zr1695     O1702   2.356       .  S
Zr1696     O1722   2.438       .  S
Zr1696     O1723   2.436       .  S
Zr1696     O1698   2.436       .  S
Zr1696     O1699   2.381       .  S
Zr1696     O1700   2.374       .  S
O1697      H1734   0.990       .  S
O1698      H1729   0.990       .  S
O1698      H1743   0.990       .  S
O1700      H1726   0.964       .  S
O1701     Zr1711   2.388       .  S
O1702     Zr1711   2.369       .  S
O1702      H1727   0.961       .  S
C1703      C2246   1.418       .  S
C1704      C2249   1.476       .  S
C1705      C2242   1.437       .  S
O1706      H1742   0.990       .  S
O1707      C1709   1.291       .  A
O1708      C1709   1.278       .  A
C1709      C2243   1.451       .  S
O1710     Zr1711   2.440       .  S
O1710      H1739   0.990       .  S
Zr1711     O1714   2.435   1_556  S
Zr1711     O1715   2.440       .  S
O1712      C1717   1.288       .  A
O1713      H1730   0.990   1_556  S
O1713      H1745   0.990       .  S
O1714      H1731   0.990       .  S
O1715      H1735   0.990       .  S
O1715      H1744   0.989       .  S
O1716      C1717   1.285       .  A
C1717      C2247   1.448       .  S
O1718      H1737   0.990       .  S
O1718      H1741   0.989       .  S
O1719      H1733   0.989       .  S
O1719      H1740   0.990       .  S
O1720      C1724   1.262   1_554  A
O1721      C1724   1.280       .  A
O1722      H1732   0.990       .  S
O1723      H1736   0.990       .  S
C1724      C2251   1.407       .  S
Zr1747     O1748   2.439       .  S
Zr1747     O1749   2.434       .  S
Zr1747     O1750   2.418       .  S
Zr1747     O1753   2.534       .  S
Zr1747     O1755   2.417       .  S
Zr1747     O1756   2.386       .  S
Zr1747     O1757   2.438       .  S
Zr1747     O1758   2.377       .  S
O1748      H1804   0.990       .  S
O1748      H1812   0.990       .  S
O1749      C1769   1.278       .  A
O1750      C1771   1.281       .  A
O1751     Zr1761   2.395       .  S
O1751      C1770   1.275       .  A
O1752     Zr1760   2.455       .  S
O1752      C1771   1.289       .  A
O1753      C1770   1.304       .  A
O1754     Zr1762   2.391       .  S
O1754      C1769   1.263       .  A
O1755     Zr1760   2.393       .  S
O1755     Zr1762   2.357       .  S
O1756     Zr1761   2.375       .  S
O1756     Zr1762   2.401       .  S
O1756      H1791   0.966       .  S
O1757     Zr1760   2.429       .  S
O1757     Zr1777   2.396       .  S
O1757      H1794   0.966       .  S
O1758     Zr1761   2.388       .  S
O1758     Zr1777   2.411       .  S
Zr1759     O1784   2.449   1_556  S
Zr1759     O1786   2.384       .  S
Zr1759     O1765   2.398       .  S
Zr1759     O1766   2.418       .  S
Zr1759     O1767   2.385       .  S
Zr1759     O1768   2.384       .  S
Zr1760     O1779   2.434       .  S
Zr1760     O1772   2.434       .  S
Zr1760     O1766   2.394       .  S
Zr1760     O1767   2.396       .  S
Zr1761     O1763   2.439       .  S
Zr1761     O1785   2.442       .  S
Zr1761     O1787   2.391       .  S
Zr1761     O1765   2.390       .  S
Zr1761     O1768   2.399       .  S
Zr1762     O1788   2.437       .  S
Zr1762     O1789   2.435       .  S
Zr1762     O1764   2.435       .  S
Zr1762     O1765   2.358       .  S
Zr1762     O1766   2.388       .  S
O1763      H1800   0.990       .  S
O1764      H1795   0.990       .  S
O1764      H1809   0.990       .  S
O1766      H1792   0.964       .  S
O1767     Zr1777   2.388       .  S
O1768     Zr1777   2.383       .  S
O1768      H1793   0.963       .  S
C1769      C2235   1.418       .  S
C1770      C2240   1.471       .  S
C1771      C2232   1.434       .  S
O1772      H1808   0.990       .  S
O1773      C1775   1.297       .  A
O1774      C1775   1.274       .  A
C1775      C2234   1.451       .  S
O1776     Zr1777   2.440       .  S
O1776      H1805   0.990       .  S
Zr1777     O1780   2.437   1_556  S
Zr1777     O1781   2.439       .  S
O1778      C1783   1.290       .  A
O1779      H1796   0.990   1_556  S
O1779      H1811   0.990       .  S
O1780      H1797   0.990       .  S
O1781      H1801   0.990       .  S
O1781      H1810   0.990       .  S
O1782      C1783   1.281       .  A
C1783      C2237   1.445       .  S
O1784      H1803   0.990       .  S
O1784      H1807   0.987       .  S
O1785      H1799   0.990       .  S
O1785      H1806   0.990       .  S
O1786      C1790   1.263       .  A
O1787      C1790   1.268       .  A
O1788      H1798   0.990       .  S
O1789      H1802   0.990       .  S
C1790      C2252   1.405       .  S
Zr1813     O1814   2.440       .  S
Zr1813     O1815   2.435       .  S
Zr1813     O1816   2.422       .  S
Zr1813     O1819   2.524       .  S
Zr1813     O1821   2.410       .  S
Zr1813     O1822   2.385       .  S
Zr1813     O1823   2.435       .  S
Zr1813     O1824   2.371       .  S
O1814      H1870   0.990       .  S
O1814      H1878   0.990       .  S
O1815      C1835   1.279       .  A
O1816      C1837   1.281       .  A
O1817     Zr1827   2.411       .  S
O1817      C1836   1.277       .  A
O1818     Zr1826   2.458       .  S
O1818      C1837   1.289       .  A
O1819      C1836   1.302       .  A
O1820     Zr1828   2.391       .  S
O1820      C1835   1.264       .  A
O1821     Zr1826   2.394       .  S
O1821     Zr1828   2.365       .  S
O1822     Zr1827   2.371       .  S
O1822     Zr1828   2.396       .  S
O1822      H1857   0.966       .  S
O1823     Zr1826   2.423       .  S
O1823     Zr1843   2.405       .  S
O1823      H1860   0.966       .  S
O1824     Zr1827   2.386       .  S
O1824     Zr1843   2.408       .  S
Zr1825     O1850   2.434       .  S
Zr1825     O1844   2.451       .  S
Zr1825     O1852   2.387       .  S
Zr1825     O1840   2.407       .  S
Zr1825     O1831   2.404       .  S
Zr1825     O1832   2.412       .  S
Zr1825     O1833   2.383       .  S
Zr1825     O1834   2.392       .  S
Zr1826     O1845   2.433       .  S
Zr1826     O1838   2.434       .  S
Zr1826     O1839   2.491       .  S
Zr1826     O1832   2.405       .  S
Zr1826     O1833   2.406       .  S
Zr1827     O1829   2.444       .  S
Zr1827     O1851   2.441       .  S
Zr1827     O1853   2.454       .  S
Zr1827     O1831   2.385       .  S
Zr1827     O1834   2.385       .  S
Zr1828     O1854   2.438       .  S
Zr1828     O1855   2.435       .  S
Zr1828     O1830   2.436       .  S
Zr1828     O1831   2.371       .  S
Zr1828     O1832   2.381       .  S
O1829      H1866   0.990       .  S
O1830      H1861   0.990       .  S
O1830      H1875   0.990       .  S
O1832      H1858   0.964       .  S
O1833     Zr1843   2.388       .  S
O1834     Zr1843   2.383       .  S
O1834      H1859   0.957       .  S
C1835      C2245   1.418       .  S
C1836      C2239   1.472       .  S
C1837      C2254   1.440       .  S
O1838      H1874   0.990       .  S
O1839      C1841   1.293       .  A
O1840      C1841   1.276       .  A
C1841      C2244   1.448       .  S
O1842     Zr1843   2.440       .  S
O1842      H1871   0.990       .  S
Zr1843     O1846   2.436       .  S
Zr1843     O1847   2.439       .  S
Zr1843     O1848   2.443       .  S
O1844      C1849   1.284       .  A
O1845      H1862   0.990       .  S
O1845      H1877   0.990       .  S
O1846      H1863   0.990       .  S
O1847      H1867   0.990       .  S
O1847      H1876   0.990       .  S
O1848      C1849   1.283       .  A
C1849      C2238   1.445       .  S
O1850      H1869   0.991       .  S
O1850      H1873   0.988       .  S
O1851      H1865   0.990       .  S
O1851      H1872   0.990       .  S
O1852      C1856   1.263       .  A
O1853      C1856   1.276       .  A
O1854      H1864   0.990       .  S
O1855      H1868   0.990       .  S
C1856      C2230   1.425       .  S
Zr1879     O1880   2.439       .  S
Zr1879     O1881   2.434       .  S
Zr1879     O1882   2.422       .  S
Zr1879     O1885   2.536       .  S
Zr1879     O1887   2.415       .  S
Zr1879     O1888   2.387       .  S
Zr1879     O1889   2.438       .  S
Zr1879     O1890   2.375       .  S
O1880      H1936   0.990       .  S
O1880      H1944   0.990       .  S
O1881      C1901   1.278       .  A
O1882      C1903   1.282       .  A
O1883     Zr1893   2.403       .  S
O1883      C1902   1.276       .  A
O1884     Zr1892   2.460       .  S
O1884      C1903   1.290       .  A
O1885      C1902   1.304       .  A
O1886     Zr1894   2.392       .  S
O1886      C1901   1.263       .  A
O1887     Zr1892   2.391       .  S
O1887     Zr1894   2.363       .  S
O1888     Zr1893   2.366       .  S
O1888     Zr1894   2.395       .  S
O1888      H1923   0.966       .  S
O1889     Zr1892   2.425       .  S
O1889     Zr1909   2.399       .  S
O1889      H1926   0.966       .  S
O1890     Zr1893   2.386       .  S
O1890     Zr1909   2.410       .  S
Zr1891     O1916   2.450       .  S
Zr1891     O1910   2.472       .  S
Zr1891     O1918   2.376       .  S
Zr1891     O1906   2.418       .  S
Zr1891     O1897   2.409       .  S
Zr1891     O1898   2.417       .  S
Zr1891     O1899   2.386       .  S
Zr1891     O1900   2.389       .  S
Zr1892     O1911   2.434       .  S
Zr1892     O1904   2.434       .  S
Zr1892     O1905   2.498       .  S
Zr1892     O1898   2.402       .  S
Zr1892     O1899   2.402       .  S
Zr1893     O1895   2.435       .  S
Zr1893     O1917   2.439       .  S
Zr1893     O1919   2.394       .  S
Zr1893     O1897   2.388       .  S
Zr1893     O1900   2.391       .  S
Zr1894     O1920   2.437       .  S
Zr1894     O1921   2.435       .  S
Zr1894     O1896   2.436       .  S
Zr1894     O1897   2.372       .  S
Zr1894     O1898   2.381       .  S
O1895      H1932   0.990       .  S
O1896      H1927   0.990       .  S
O1896      H1941   0.990       .  S
O1898      H1924   0.964       .  S
O1899     Zr1909   2.388       .  S
O1900     Zr1909   2.381       .  S
O1900      H1925   0.963       .  S
C1901      C2236   1.418       .  S
C1902      C2250   1.475       .  S
C1903      C2256   1.440       .  S
O1904      H1940   0.990       .  S
O1905      C1907   1.295       .  A
O1906      C1907   1.279       .  A
C1907      C2233   1.454       .  S
O1908     Zr1909   2.440       .  S
O1908      H1937   0.990       .  S
Zr1909     O1912   2.436       .  S
Zr1909     O1913   2.439       .  S
Zr1909     O1914   2.431       .  S
O1910      C1915   1.289       .  A
O1911      H1928   0.990       .  S
O1911      H1943   0.990       .  S
O1912      H1929   0.990       .  S
O1913      H1933   0.990       .  S
O1913      H1942   0.990       .  S
O1914      C1915   1.281       .  A
C1915      C2248   1.448       .  S
O1916      H1935   0.989       .  S
O1916      H1939   0.989       .  S
O1917      H1931   0.990       .  S
O1917      H1938   0.990       .  S
O1918      C1922   1.264       .  A
O1919      C1922   1.273       .  A
O1920      H1930   0.990       .  S
O1921      H1934   0.990       .  S
C1922      C2229   1.420       .  S
Zr1945     O1946   2.439       .  S
Zr1945     O1947   2.435       .  S
Zr1945     O1948   2.418       .  S
Zr1945     O1951   2.535       .  S
Zr1945     O1953   2.418       .  S
Zr1945     O1954   2.386       .  S
Zr1945     O1955   2.439       .  S
Zr1945     O1956   2.377       .  S
O1946      H2002   0.990       .  S
O1946      H2010   0.990       .  S
O1947      C1967   1.278       .  A
O1948      C1969   1.281       .  A
O1949     Zr1959   2.402       .  S
O1949      C1968   1.276       .  A
O1950     Zr1958   2.455       .  S
O1950      C1969   1.289       .  A
O1951      C1968   1.304       .  A
O1952     Zr1960   2.390       .  S
O1952      C1967   1.263       .  A
O1953     Zr1958   2.394       .  S
O1953     Zr1960   2.359       .  S
O1954     Zr1959   2.374       .  S
O1954     Zr1960   2.402       .  S
O1954      H1989   0.966       .  S
O1955     Zr1958   2.429       .  S
O1955     Zr1975   2.396       .  S
O1955      H1992   0.966       .  S
O1956     Zr1959   2.388       .  S
O1956     Zr1975   2.413       .  S
Zr1957     O1982   2.446       .  S
Zr1957     O1976   2.478       .  S
Zr1957     O1984   2.384       .  S
Zr1957     O1972   2.400       .  S
Zr1957     O1963   2.401       .  S
Zr1957     O1964   2.419       .  S
Zr1957     O1965   2.384       .  S
Zr1957     O1966   2.384       .  S
Zr1958     O1977   2.434       .  S
Zr1958     O1970   2.434       .  S
Zr1958     O1971   2.510       .  S
Zr1958     O1964   2.394       .  S
Zr1958     O1965   2.398       .  S
Zr1959     O1961   2.439       .  S
Zr1959     O1983   2.442       .  S
Zr1959     O1985   2.396       .  S
Zr1959     O1963   2.390       .  S
Zr1959     O1966   2.398       .  S
Zr1960     O1986   2.437       .  S
Zr1960     O1987   2.435       .  S
Zr1960     O1962   2.435       .  S
Zr1960     O1963   2.357       .  S
Zr1960     O1964   2.388       .  S
O1961      H1998   0.990       .  S
O1962      H1993   0.990       .  S
O1962      H2007   0.990       .  S
O1964      H1990   0.964       .  S
O1965     Zr1975   2.389       .  S
O1966     Zr1975   2.383       .  S
O1966      H1991   0.962       .  S
C1967      C2221   1.419       .  S
C1968      C2223   1.475       .  S
C1969      C2231   1.434       .  S
O1970      H2006   0.990       .  S
O1971      C1973   1.297       .  A
O1972      C1973   1.275       .  A
C1973      C2219   1.453       .  S
O1974     Zr1975   2.440       .  S
O1974      H2003   0.990       .  S
Zr1975     O1978   2.437       .  S
Zr1975     O1979   2.439       .  S
Zr1975     O1980   2.429       .  S
O1976      C1981   1.292       .  A
O1977      H1994   0.990       .  S
O1977      H2009   0.990       .  S
O1978      H1995   0.990       .  S
O1979      H1999   0.990       .  S
O1979      H2008   0.990       .  S
O1980      C1981   1.281       .  A
C1981      C2226   1.449       .  S
O1982      H2001   0.990       .  S
O1982      H2005   0.987       .  S
O1983      H1997   0.990       .  S
O1983      H2004   0.990       .  S
O1984      C1988   1.263       .  A
O1985      C1988   1.269       .  A
O1986      H1996   0.990       .  S
O1987      H2000   0.990       .  S
C1988      C2227   1.405       .  S
Zr2011     O2012   2.439       .  S
Zr2011     O2013   2.440       .  S
Zr2011     O2014   2.430       .  S
Zr2011     O2017   2.530       .  S
Zr2011     O2019   2.408       .  S
Zr2011     O2020   2.377       .  S
Zr2011     O2021   2.438       .  S
Zr2011     O2022   2.376       .  S
O2012      H2068   0.990       .  S
O2012      H2076   0.990       .  S
O2013      C2033   1.279       .  A
O2014      C2035   1.283       .  A
O2015     Zr2025   2.416       .  S
O2015      C2034   1.279       .  A
O2016     Zr2024   2.445       .  S
O2016      C2035   1.286       .  A
O2017      C2034   1.304       .  A
O2018     Zr2026   2.389       .  S
O2018      C2033   1.264       .  A
O2019     Zr2024   2.396       .  S
O2019     Zr2026   2.369       .  S
O2020     Zr2025   2.370       .  S
O2020     Zr2026   2.393       .  S
O2020      H2055   0.966       .  S
O2021     Zr2024   2.421       .  S
O2021     Zr2041   2.404       .  S
O2021      H2058   0.966       .  S
O2022     Zr2025   2.385       .  S
O2022     Zr2041   2.413       .  S
Zr2023     O2048   2.434       .  S
Zr2023     O2042   2.452       .  S
Zr2023     O2050   2.383       .  S
Zr2023     O2038   2.410       .  S
Zr2023     O2029   2.413       .  S
Zr2023     O2030   2.400       .  S
Zr2023     O2031   2.385       .  S
Zr2023     O2032   2.397       .  S
Zr2024     O2043   2.433       .  S
Zr2024     O2036   2.434       .  S
Zr2024     O2037   2.482       .  S
Zr2024     O2030   2.408       .  S
Zr2024     O2031   2.396       .  S
Zr2025     O2027   2.437       .  S
Zr2025     O2049   2.433       .  S
Zr2025     O2051   2.460       .  S
Zr2025     O2029   2.387       .  S
Zr2025     O2032   2.356       .  S
Zr2026     O2052   2.438       .  S
Zr2026     O2053   2.435       .  S
Zr2026     O2028   2.436       .  S
Zr2026     O2029   2.379       .  S
Zr2026     O2030   2.374       .  S
O2027      H2064   0.990       .  S
O2028      H2059   0.990       .  S
O2028      H2073   0.990       .  S
O2030      H2056   0.965       .  S
O2031     Zr2041   2.386       .  S
O2032     Zr2041   2.366       .  S
O2032      H2057   0.961       .  S
C2033      C2214   1.419       .  S
C2034      C2217   1.476       .  S
C2035      C2241   1.437       .  S
O2036      H2072   0.990       .  S
O2037      C2039   1.289       .  A
O2038      C2039   1.276       .  A
C2039      C2211   1.448       .  S
O2040     Zr2041   2.440       .  S
O2040      H2069   0.990       .  S
Zr2041     O2044   2.435       .  S
Zr2041     O2045   2.440       .  S
Zr2041     O2046   2.457       .  S
O2042      C2047   1.287       .  A
O2043      H2060   0.990       .  S
O2043      H2075   0.990       .  S
O2044      H2061   0.990       .  S
O2045      H2065   0.990       .  S
O2045      H2074   0.989       .  S
O2046      C2047   1.287       .  A
C2047      C2215   1.448       .  S
O2048      H2067   0.990       .  S
O2048      H2071   0.988       .  S
O2049      H2063   0.989       .  S
O2049      H2070   0.990       .  S
O2050      C2054   1.262       .  A
O2051      C2054   1.280       .  A
O2052      H2062   0.990       .  S
O2053      H2066   0.990       .  S
C2054      C2228   1.407   1_655  S
Zr2077     O2078   2.439   1_655  S
Zr2077     O2080   2.426       .  S
Zr2077     O2085   2.408       .  S
Zr2077     O2086   2.376       .  S
Zr2077     O2087   2.438   1_655  S
Zr2077     O2088   2.373   1_655  S
O2078      H2142   0.990       .  S
O2079      C2099   1.279       .  A
O2080      C2101   1.283       .  A
O2081      C2100   1.279   1_554  A
O2082     Zr2090   2.443       .  S
O2082      C2101   1.286       .  A
O2083      C2100   1.303       .  A
O2084      C2099   1.264       .  A
O2085     Zr2090   2.396       .  S
O2085     Zr2092   2.368       .  S
O2086     Zr2091   2.369   1_655  S
O2086     Zr2092   2.394       .  S
O2086      H2121   0.966       .  S
O2087     Zr2090   2.420   1_455  S
O2087     Zr2107   2.405       .  S
O2087      H2124   0.966       .  S
O2088     Zr2091   2.383       .  S
O2088     Zr2107   2.412       .  S
Zr2089     O2114   2.434       .  S
Zr2089     O2108   2.454   1_655  S
Zr2089     O2116   2.383       .  S
Zr2089     O2104   2.411       .  S
Zr2089     O2095   2.413       .  S
Zr2089     O2096   2.400       .  S
Zr2089     O2097   2.385       .  S
Zr2089     O2098   2.398   1_655  S
Zr2090     O2109   2.433       .  S
Zr2090     O2102   2.434       .  S
Zr2090     O2103   2.481       .  S
Zr2090     O2096   2.408       .  S
Zr2090     O2097   2.396       .  S
Zr2091     O2093   2.439       .  S
Zr2091     O2115   2.433   1_455  S
Zr2091     O2117   2.462   1_455  S
Zr2091     O2095   2.386   1_455  S
Zr2091     O2098   2.358       .  S
Zr2092     O2118   2.438       .  S
Zr2092     O2119   2.435       .  S
Zr2092     O2094   2.436       .  S
Zr2092     O2095   2.377       .  S
Zr2092     O2096   2.375       .  S
O2093      H2130   0.990       .  S
O2094      H2125   0.990       .  S
O2094      H2139   0.990       .  S
O2096      H2122   0.965       .  S
O2097     Zr2107   2.386   1_655  S
O2098     Zr2107   2.368       .  S
O2098      H2123   0.960       .  S
C2099      C2213   1.419       .  S
C2100      C2224   1.476       .  S
C2101      C2278   1.435       .  S
O2102      H2138   0.990       .  S
O2103      C2105   1.289       .  A
O2104      C2105   1.276       .  A
C2105      C2212   1.448       .  S
O2106     Zr2107   2.440       .  S
O2106      H2135   0.990       .  S
Zr2107     O2110   2.435       .  S
Zr2107     O2111   2.440       .  S
Zr2107     O2112   2.456       .  S
O2108      C2113   1.287       .  A
O2109      H2126   0.990       .  S
O2109      H2141   0.990       .  S
O2110      H2127   0.990       .  S
O2111      H2131   0.990       .  S
O2111      H2140   0.989       .  S
O2112      C2113   1.287       .  A
C2113      C2225   1.449       .  S
O2114      H2133   0.990       .  S
O2114      H2137   0.988       .  S
O2115      H2129   0.989       .  S
O2116      C2120   1.262       .  A
O2117      C2120   1.280       .  A
O2118      H2128   0.990       .  S
O2119      H2132   0.990       .  S
C2120      C2210   1.405   1_655  S
Zr2143     O2144   2.439   1_455  S
Zr2143     O2146   2.413       .  S
Zr2143     O2151   2.418       .  S
Zr2143     O2152   2.384       .  S
Zr2143     O2153   2.439       .  S
Zr2143     O2154   2.376   1_455  S
O2144      H2208   0.990       .  S
O2145      C2165   1.278       .  A
O2146      C2167   1.280       .  A
O2147      C2166   1.276       .  A
O2148     Zr2156   2.454       .  S
O2148      C2167   1.289       .  A
O2149      C2166   1.304       .  A
O2150      C2165   1.263       .  A
O2151     Zr2156   2.393       .  S
O2151     Zr2158   2.356       .  S
O2152     Zr2157   2.373       .  S
O2152     Zr2158   2.402       .  S
O2152      H2187   0.966       .  S
O2153     Zr2156   2.428       .  S
O2153     Zr2173   2.395   1_455  S
O2153      H2190   0.966       .  S
O2154     Zr2157   2.387   1_655  S
O2154     Zr2173   2.413       .  S
Zr2155     O2180   2.452       .  S
Zr2155     O2174   2.481       .  S
Zr2155     O2182   2.385       .  S
Zr2155     O2170   2.408       .  S
Zr2155     O2161   2.400       .  S
Zr2155     O2162   2.420       .  S
Zr2155     O2163   2.385       .  S
Zr2155     O2164   2.387       .  S
Zr2156     O2175   2.433       .  S
Zr2156     O2168   2.434       .  S
Zr2156     O2169   2.506       .  S
Zr2156     O2162   2.395       .  S
Zr2156     O2163   2.397       .  S
Zr2157     O2159   2.440   1_455  S
Zr2157     O2181   2.443       .  S
Zr2157     O2183   2.395       .  S
Zr2157     O2161   2.387       .  S
Zr2157     O2164   2.399       .  S
Zr2158     O2184   2.437       .  S
Zr2158     O2185   2.435       .  S
Zr2158     O2160   2.435       .  S
Zr2158     O2161   2.355       .  S
Zr2158     O2162   2.389       .  S
O2159      H2196   0.990       .  S
O2160      H2191   0.990       .  S
O2160      H2205   0.990       .  S
O2162      H2188   0.964       .  S
O2163     Zr2173   2.390   1_455  S
O2164     Zr2173   2.383   1_455  S
O2164      H2189   0.962   1_455  S
C2165      C2222   1.419       .  S
C2166      C2218   1.475       .  S
C2167      C2279   1.432       .  S
O2168      H2204   0.990       .  S
O2169      C2171   1.296       .  A
O2170      C2171   1.277       .  A
C2171      C2220   1.454       .  S
O2172     Zr2173   2.440       .  S
O2172      H2201   0.990       .  S
Zr2173     O2176   2.437       .  S
Zr2173     O2177   2.439       .  S
Zr2173     O2178   2.427       .  S
O2174      C2179   1.292   1_455  A
O2175      H2192   0.990       .  S
O2175      H2207   0.990       .  S
O2176      H2193   0.990       .  S
O2177      H2197   0.990       .  S
O2177      H2206   0.990       .  S
O2178      C2179   1.280       .  A
C2179      C2216   1.449       .  S
O2180      H2199   0.989       .  S
O2180      H2203   0.989       .  S
O2181      H2195   0.990       .  S
O2182      C2186   1.263       .  A
O2183      C2186   1.269       .  A
O2184      H2194   0.990       .  S
O2185      H2198   0.990       .  S
C2186      C2209   1.403       .  S
C2209      C2210   1.186       .  T
C2211      C2212   1.215       .  T
C2213      C2214   1.197       .  T
C2215      C2216   1.214       .  T
C2217      C2218   1.231       .  T
C2219      C2220   1.219       .  T
C2221      C2222   1.198       .  T
C2223      C2224   1.231       .  T
C2225      C2226   1.215       .  T
C2227      C2228   1.186       .  T
C2229      C2230   1.196       .  T
C2231      C2232   1.206       .  T
C2233      C2234   1.219       .  T
C2235      C2236   1.197       .  T
C2237      C2238   1.212       .  T
C2239      C2240   1.229       .  T
C2241      C2242   1.207       .  T
C2243      C2244   1.217       .  T
C2245      C2246   1.197       .  T
C2247      C2248   1.214       .  T
C2249      C2250   1.232       .  T
C2251      C2252   1.187       .  T
C2253      C2254   1.209       .  T
C2255      C2256   1.209       .  T
C2257      C2258   1.197       .  T
C2259      C2260   1.212       .  T
C2261      C2262   1.229       .  T
C2263      C2264   1.219       .  T
C2265      C2266   1.197       .  T
C2267      C2268   1.214       .  T
C2269      C2270   1.232       .  T
C2271      C2272   1.217       .  T
C2273      C2274   1.197       .  T
C2275      C2276   1.187       .  T
C2281      C2282   1.185       .  T
C2283      C2284   1.208       .  T
C2285      C2286   1.214       .  T
C2287      C2288   1.232       .  T
C2289      C2290   1.216       .  T
C2291      C2292   1.198       .  T
C2293      C2294   1.206       .  T
C2295      C2296   1.215       .  T
C2297      C2298   1.231       .  T
C2299      C2300   1.198       .  T
C2301      C2302   1.220       .  T
C2303      C2304   1.186       .  T
