geometry optimzed in LAMMPS
_audit_creation_date              2020-12-01 
_audit_creation_method            'lammps2cif' 
_symmetry_space_group_name_H-M    'P1' 
_symmetry_Int_Tables_number       1 
_symmetry_cell_setting            triclinic 
loop_ 
_symmetry_equiv_pos_as_xyz 
  x,y,z 
_cell_length_a                    34.62689484 
_cell_length_b                    34.64366537693637 
_cell_length_c                    48.79393133404385 
_cell_angle_alpha                 90.0027561685323 
_cell_angle_beta                  89.99728811650749 
_cell_angle_gamma                 120.05286708746678 
loop_ 
_atom_site_label 
_atom_site_type_symbol 
_atom_site_fract_x 
_atom_site_fract_y 
_atom_site_fract_z 
_atom_site_charge 
O1          O  0.33230732  0.38210257  0.88603477    -0.80100
C2          C  0.35974078  0.32516939  0.78076127     0.99300
O3          O  0.36893753  0.31647674  0.80385474    -0.69200
O4          O  0.41623225  0.38781423  0.83075056    -0.72800
Al5        Al  0.36448760  0.33543753  0.83949058     1.49000
C6          C  0.42879398  0.42589111  0.84012083     0.94500
O7          O  0.35471943  0.44633248  0.81834712    -0.79000
O8          O  0.24370207  0.34285590  0.82517495    -0.72600
Al9        Al  0.34244009  0.41062898  0.85080305     1.90100
O10         O  0.30721331  0.39589580  0.78959343    -0.71600
O11         O  0.26965120  0.27517476  0.81491208    -0.71500
O12         O  0.33172718  0.33795010  0.77841841    -0.77100
O13         O  0.31539821  0.27874352  0.84767084    -0.75300
O14         O  0.33140127  0.36100772  0.83197494    -1.11500
O15         O  0.37080572  0.34889245  0.87746458    -0.70700
C16         C  0.35483273  0.36472568  0.89423287     1.00100
C17         C  0.33412987  0.43599691  0.79572822     0.96400
Al18       Al  0.29112494  0.33917857  0.80489685     1.55600
O19         O  0.40407013  0.43461029  0.85423022    -0.75300
C20         C  0.28412979  0.25588783  0.83113001     1.00600
C21         C  0.24993205  0.37824691  0.83754481     0.95500
O22         O  0.28478671  0.40124674  0.85092363    -0.80600
O23         O  0.01508248  0.38168950  0.60900021    -0.80100
C24         C  0.43265980  0.32450104  0.71470606     0.99300
O25         O  0.41412589  0.31543617  0.69177707    -0.69200
O26         O  0.43726231  0.38676563  0.66511327    -0.72800
Al27       Al  0.43665507  0.33458173  0.65594211     1.49000
C28         C  0.46220402  0.42473381  0.65540355     0.94500
O29         O  0.05674433  0.44557370  0.67663908    -0.79000
O30         O  0.06473781  0.34176966  0.66844321    -0.72600
Al31       Al  0.03358608  0.41017777  0.64418978     1.90100
O32         O  0.05622591  0.39549657  0.70469531    -0.71600
O33         O  0.47142727  0.27433169  0.67986017    -0.71500
O34         O  0.47356663  0.33741184  0.71666642    -0.77100
O35         O  0.42905115  0.27809777  0.64735084    -0.75300
O36         O  0.49540453  0.36025874  0.66302102    -1.11500
O37         O  0.44327821  0.34835388  0.61790248    -0.70700
C38         C  0.47499511  0.36432452  0.60100128     1.00100
C39         C  0.06829012  0.43549055  0.69885144     0.96400
Al40       Al  0.01470832  0.33852275  0.68962852     1.55600
O41         O  0.49540820  0.43356660  0.64099844    -0.75300
C42         C  0.43748482  0.25513346  0.66374136     1.00600
C43         C  0.09385330  0.37751846  0.65636496     0.95500
O44         O  0.08212613  0.40137972  0.64391858    -0.80600
O45         O  0.35697488  0.04051805  0.71878922    -0.80100
C46         C  0.29807299  0.45738316  0.61370817     0.99300
O47         O  0.28926904  0.43900610  0.63668231    -0.69200
O48         O  0.36104003  0.46176828  0.66285380    -0.72800
Al49       Al  0.30913523  0.46168094  0.67238908     1.49000
C50         C  0.39919285  0.48667317  0.67236160     0.94500
O51         O  0.42005813  0.08036084  0.65065593    -0.79000
O52         O  0.31658190  0.08968598  0.65988338    -0.72600
Al53       Al  0.38516162  0.05815830  0.68344721     1.90100
O54         O  0.36958206  0.08067597  0.62329730    -0.71600
O55         O  0.24883386  0.99649656  0.64859033    -0.71500
O56         O  0.31126731  0.99822167  0.61163834    -0.77100
O57         O  0.25296336  0.45465109  0.68128577    -0.75300
O58         O  0.33488535  0.02020916  0.66506568    -1.11500
O59         O  0.32353590  0.46870811  0.71043062    -0.70700
C60         C  0.33952545  0.00064460  0.72712723     1.00100
C61         C  0.40962984  0.09232321  0.62870476     0.96400
Al62       Al  0.31279323  0.03940433  0.63861379     1.55600
O63         O  0.40801477  0.01960939  0.68691823    -0.75300
C64         C  0.22990209  0.46279921  0.66479295     1.00600
C65         C  0.35278475  0.11883924  0.67157567     0.95500
O66         O  0.37715972  0.10713256  0.68339447    -0.80600
O67         O  0.35638699  0.35824039  0.44297129    -0.80100
C68         C  0.29777943  0.38435781  0.54770834     0.99300
O69         O  0.28916477  0.39375492  0.52463831    -0.69200
O70         O  0.36082879  0.44186285  0.49821747    -0.72800
Al71       Al  0.30874300  0.39006419  0.48904098     1.49000
C72         C  0.39895009  0.45478605  0.48878419     0.94500
O73         O  0.41960643  0.38165229  0.51095779    -0.79000
O74         O  0.31591117  0.26939739  0.50258675    -0.72600
Al75       Al  0.38455162  0.36893347  0.47825803     1.90100
O76         O  0.36899392  0.33205765  0.53881121    -0.71600
O77         O  0.24827602  0.29516335  0.51323465    -0.71500
O78         O  0.31077551  0.35651034  0.55001834    -0.77100
O79         O  0.25231093  0.34096146  0.48042460    -0.75300
O80         O  0.33442270  0.35719600  0.49665778    -1.11500
O81         O  0.32293821  0.39671149  0.45106063    -0.70700
C82         C  0.33902792  0.38062633  0.43450673     1.00100
C83         C  0.40913543  0.35983203  0.53312495     0.96400
Al84       Al  0.31222746  0.31636064  0.52337642     1.55600
O85         O  0.40789753  0.43034926  0.47458773    -0.75300
C86         C  0.22920150  0.30971904  0.49690618     1.00600
C87         C  0.35182280  0.27609583  0.49068100     0.95500
O88         O  0.37598512  0.31182316  0.47845429    -0.80600
O89         O  0.01445070  0.17571246  0.55217867    -0.80100
C90         C  0.43056554  0.15008846  0.44703341     0.99300
O91         O  0.41229585  0.14051854  0.47003959    -0.69200
O92         O  0.43567561  0.09233136  0.49641770    -0.72800
Al93       Al  0.43528181  0.14397864  0.50573883     1.49000
C94         C  0.46079044  0.07940768  0.50594005     0.94500
O95         O  0.05453517  0.15246511  0.48430861    -0.79000
O96         O  0.06367022  0.26485892  0.49267838    -0.72600
Al97       Al  0.03220562  0.16519111  0.51691933     1.90100
O98         O  0.05404309  0.20218941  0.45635934    -0.71600
O99         O  0.47025907  0.23926633  0.48197052    -0.71500
O100        O  0.47143469  0.17816589  0.44491398    -0.77100
O101        O  0.42792681  0.19292690  0.51446229    -0.75300
O102        O  0.49396233  0.17700196  0.49837506    -1.11500
O103        O  0.44245793  0.13697962  0.54375252    -0.70700
C104        C  0.47447490  0.15290256  0.56045552     1.00100
C105        C  0.06602882  0.17416302  0.46211377     0.96400
Al106      Al  0.01299810  0.21803175  0.47175663     1.55600
O107        O  0.49386507  0.10370769  0.52043823    -0.75300
C108        C  0.43642331  0.22448778  0.49819003     1.00600
C109        C  0.09280948  0.25808281  0.50458653     0.95500
O110        O  0.08104202  0.22231190  0.51680778    -0.80600
O111        O  0.33223116  0.49150487  0.27570025    -0.80100
C112        C  0.35830661  0.07601207  0.38100060     0.99300
O113        O  0.36801738  0.09381844  0.35788760    -0.69200
O114        O  0.41571799  0.07023854  0.33113815    -0.72800
Al115      Al  0.36384366  0.07051278  0.32227500     1.49000
C116        C  0.42846308  0.04482581  0.32187738     0.94500
O117        O  0.35463713  0.45033246  0.34358160    -0.79000
O118        O  0.24324758  0.44188533  0.33625028    -0.72600
Al119      Al  0.34233357  0.47338721  0.31104157     1.90100
O120        O  0.30653717  0.45264283  0.37211263    -0.71600
O121        O  0.26858203  0.03524977  0.34654263    -0.71500
O122        O  0.33035936  0.03516430  0.38332990    -0.77100
O123        O  0.31463781  0.07779425  0.31399668    -0.75300
O124        O  0.33093474  0.01184549  0.32979034    -1.11500
O125        O  0.37028123  0.06339504  0.28429091    -0.70700
C126        C  0.35451010  0.03156558  0.26752025     1.00100
C127        C  0.33375263  0.43980735  0.36608555     0.96400
Al128      Al  0.29023990  0.49302520  0.35668550     1.55600
O129        O  0.40393942  0.01134778  0.30774184    -0.75300
C130        C  0.28314594  0.06910600  0.33040180     1.00600
C131        C  0.24979843  0.41290780  0.32395667     0.95500
O132        O  0.28492938  0.42489331  0.31088977    -0.80600
O133        O  0.14839755  0.14934706  0.38635310    -0.80100
C134        C  0.12388913  0.20795462  0.28092069     0.99300
O135        O  0.11390770  0.21616933  0.30391782    -0.69200
O136        O  0.06583850  0.14483743  0.33049170    -0.72800
Al137      Al  0.11754303  0.19699193  0.33961015     1.49000
C138        C  0.05287401  0.10665825  0.33979450     0.94500
O139        O  0.12686428  0.08619687  0.31831487    -0.79000
O140        O  0.23835478  0.18948040  0.32665577    -0.72600
Al141      Al  0.13875840  0.12130110  0.35098721     1.90100
O142        O  0.17585737  0.13689709  0.29026181    -0.71600
O143        O  0.21320019  0.25741361  0.31601228    -0.71500
O144        O  0.15210751  0.19539259  0.27884332    -0.77100
O145        O  0.16649635  0.25353038  0.34818055    -0.75300
O146        O  0.15060349  0.17134872  0.33237190    -1.11500
O147        O  0.11062483  0.18326946  0.37752988    -0.70700
C148        C  0.12616404  0.16714303  0.39439810     1.00100
C149        C  0.14826399  0.09676591  0.29598066     0.96400
Al150      Al  0.19174708  0.19352825  0.30576888     1.55600
O151        O  0.07718770  0.09763051  0.35406501    -0.75300
C152        C  0.19833267  0.27654924  0.33204786     1.00600
C153        C  0.23159058  0.15373801  0.33876135     0.95500
O154        O  0.19612105  0.13018018  0.35142936    -0.80600
O155        O  0.46750006  0.15177670  0.10926165    -0.80100
C156        C  0.05101113  0.20843754  0.21484444     0.99300
O157        O  0.06907258  0.21715827  0.19179277    -0.69200
O158        O  0.04500518  0.14588983  0.16484485    -0.72800
Al159      Al  0.04590880  0.19833619  0.15608369     1.49000
C160        C  0.01945014  0.10779887  0.15548470     0.94500
O161        O  0.42449529  0.08790969  0.17690859    -0.79000
O162        O  0.41818380  0.19180753  0.17002738    -0.72600
Al163      Al  0.44859335  0.12352231  0.14455950     1.90100
O164        O  0.42758080  0.13823144  0.20576013    -0.71600
O165        O  0.51194142  0.25906472  0.18059714    -0.71500
O166        O  0.01021213  0.19578561  0.21710049    -0.77100
O167        O  0.05385548  0.25508249  0.14784910    -0.75300
O168        O  0.48726517  0.17303986  0.16347472    -1.11500
O169        O  0.03910756  0.18496991  0.11806762    -0.70700
C170        C  0.50748855  0.16909531  0.10118684     1.00100
C171        C  0.41414361  0.09811460  0.19950656     0.96400
Al172      Al  0.46884131  0.19502082  0.19050927     1.55600
O173        O  0.48583994  0.09902312  0.14156830    -0.75300
C174        C  0.04568171  0.27810182  0.16436061     1.00600
C175        C  0.38908439  0.15666644  0.15740946     0.95500
O176        O  0.40086413  0.13361267  0.14407331    -0.80600
O177        O  0.12519802  0.49238930  0.21885752    -0.80100
C178        C  0.18448771  0.07671602  0.11393957     0.99300
O179        O  0.19273913  0.09481635  0.13698342    -0.69200
O180        O  0.12077483  0.07124907  0.16313579    -0.72800
Al181      Al  0.17294526  0.07174900  0.17259899     1.49000
C182        C  0.08258769  0.04600604  0.17249796     0.94500
O183        O  0.06250888  0.45225202  0.15061277    -0.79000
O184        O  0.16622578  0.44373323  0.15969375    -0.72600
Al185      Al  0.09724117  0.47467707  0.18344720     1.90100
O186        O  0.11334498  0.45299506  0.12309909    -0.71600
O187        O  0.23387488  0.03747876  0.14889125    -0.71500
O188        O  0.17161077  0.03586259  0.11174890    -0.77100
O189        O  0.22938958  0.07933038  0.18146565    -0.75300
O190        O  0.14750362  0.01316199  0.16512374    -1.11500
O191        O  0.15853222  0.06436806  0.21058900    -0.70700
C192        C  0.14253243  0.03228256  0.22723015     1.00100
C193        C  0.07318825  0.44087372  0.12852871     0.96400
Al194      Al  0.16996427  0.49425907  0.13863701     1.55600
O195        O  0.07373912  0.01279145  0.18686759    -0.75300
C196        C  0.25272253  0.07123933  0.16515868     1.00600
C197        C  0.13024291  0.41452886  0.17157249     0.95500
O198        O  0.10583260  0.42611289  0.18345253    -0.80600
O199        O  0.12652174  0.17533141  0.94285313    -0.80100
C200        C  0.18515985  0.14993741  0.04788271     0.99300
O201        O  0.19340617  0.14009760  0.02484134    -0.69200
O202        O  0.12203617  0.09196799  0.99821313    -0.72800
Al203      Al  0.17410922  0.14382946  0.98917672     1.49000
C204        C  0.08402608  0.07896081  0.98858573     0.94500
O205        O  0.06325864  0.15245370  0.01096078    -0.79000
O206        O  0.16662938  0.26464144  0.00245748    -0.72600
Al207      Al  0.09833343  0.16492520  0.97821055     1.90100
O208        O  0.11386785  0.20199997  0.03884544    -0.71600
O209        O  0.23459154  0.23921365  0.01302529    -0.71500
O210        O  0.17252269  0.17808019  0.05008893    -0.77100
O211        O  0.23049298  0.19281368  0.98060178    -0.75300
O212        O  0.14843306  0.17676565  0.99667697    -1.11500
O213        O  0.16021624  0.13717538  0.95116210    -0.70700
C214        C  0.14409766  0.15305767  0.93449284     1.00100
C215        C  0.07370960  0.17422956  0.03316391     0.96400
Al216      Al  0.17065705  0.21785622  0.02330383     1.55600
O217        O  0.07495492  0.10353675  0.97464909    -0.75300
C218        C  0.25360897  0.22440486  0.99683538     1.00600
C219        C  0.13078549  0.25777680  0.99038343     0.95500
O220        O  0.10682569  0.22197180  0.97820154    -0.80600
O221        O  0.46844157  0.35830272  0.05183127    -0.80100
C222        C  0.05147393  0.38368113  0.94653904     0.99300
O223        O  0.06991166  0.39199085  0.96950643    -0.69200
O224        O  0.04702425  0.44083821  0.99582294    -0.72800
Al225      Al  0.04695145  0.38904907  0.00526416     1.49000
C226        C  0.02193375  0.45394034  0.00517591     0.94500
O227        O  0.42718602  0.38071609  0.98411687    -0.79000
O228        O  0.41885198  0.26884781  0.99201822    -0.72600
Al229      Al  0.45029458  0.36839754  0.01657279     1.90100
O230        O  0.42785972  0.33135429  0.95600245    -0.71600
O231        O  0.51227680  0.29467652  0.98084582    -0.71500
O232        O  0.01040335  0.35641818  0.94441085    -0.77100
O233        O  0.05343701  0.33964783  0.01417619    -0.75300
O234        O  0.48824513  0.35645016  0.99790913    -1.11500
O235        O  0.04017945  0.39662657  0.04324943    -0.70700
C236        C  0.00831042  0.38088080  0.06003710     1.00100
C237        C  0.41556686  0.35904749  0.96192126     0.96400
Al238      Al  0.46922835  0.31582060  0.97108802     1.55600
O239        O  0.48876165  0.42987589  0.01962479    -0.75300
C240        C  0.04562445  0.30884816  0.99743014     1.00600
C241        C  0.38987856  0.27554160  0.00425242     0.95500
O242        O  0.40175774  0.31108066  0.01681943    -0.80600
O243        O  0.14875672  0.04164837  0.77532762    -0.80100
C244        C  0.12363489  0.45735851  0.88033041     0.99300
O245        O  0.11362382  0.43930043  0.85727512    -0.69200
O246        O  0.06589240  0.46289643  0.83067487    -0.72800
Al247      Al  0.11761101  0.46243824  0.82160771     1.49000
C248        C  0.05311665  0.48844396  0.82172219     0.94500
O249        O  0.12728359  0.08244958  0.84367107    -0.79000
O250        O  0.23881842  0.09036737  0.83483457    -0.72600
Al251      Al  0.13910935  0.05956561  0.81083009     1.90100
O252        O  0.17663233  0.08080732  0.87138065    -0.71600
O253        O  0.21311535  0.99698862  0.84545782    -0.71500
O254        O  0.15209106  0.99816407  0.88253408    -0.77100
O255        O  0.16650499  0.45457260  0.81308695    -0.75300
O256        O  0.15086492  0.02105244  0.82914190    -1.11500
O257        O  0.11118134  0.46986812  0.78366839    -0.70700
C258        C  0.12682877  0.00171498  0.76703853     1.00100
C259        C  0.14907369  0.09344697  0.86585863     0.96400
Al260      Al  0.19200856  0.03972540  0.85573153     1.55600
O261        O  0.07752097  0.02177264  0.80768898    -0.75300
C262        C  0.19816152  0.46307391  0.82931463     1.00600
C263        C  0.23218720  0.11958621  0.82291767     0.95500
O264        O  0.19652351  0.10797015  0.81056556    -0.80600
C265        C  0.07798090  0.40755141  0.92291059    -0.11500
C266        C  0.10057882  0.43065655  0.90406579    -0.13100
C267        C  0.14283703  0.14089401  0.90609325    -0.11500
C268        C  0.14335863  0.12114309  0.88572037    -0.13100
C269        C  0.10902725  0.28474853  0.99370545    -0.11500
C270        C  0.07920705  0.29430280  0.99560736    -0.13100
C271        C  0.30180824  0.23925755  0.99854849    -0.11500
C272        C  0.34116975  0.24882373  0.00059478    -0.13100
C273        C  0.03219392  0.49724233  0.99945008    -0.11500
C274        C  0.05109166  0.03523962  0.99343570    -0.13100
C275        C  0.18818281  0.10347288  0.09026639    -0.11500
C276        C  0.18843071  0.12658293  0.07153736    -0.13100
C277        C  0.03967994  0.41330799  0.10869207    -0.11500
C278        C  0.01936242  0.39347602  0.08835566    -0.13100
C279        C  0.01899267  0.16778891  0.07288035    -0.11500
C280        C  0.03986927  0.16837352  0.05277762    -0.13100
C281        C  0.34035463  0.13459442  0.16130203    -0.11500
C282        C  0.30093400  0.10484247  0.16343559    -0.13100
C283        C  0.07921424  0.32630466  0.16624873    -0.11500
C284        C  0.10885133  0.36578240  0.16826218    -0.13100
C285        C  0.04920464  0.05599874  0.16685139    -0.11500
C286        C  0.02980098  0.07456970  0.16068004    -0.13100
C287        C  0.10068465  0.21129998  0.25717341    -0.11500
C288        C  0.07771674  0.21141788  0.23843907    -0.13100
C289        C  0.14202242  0.06318782  0.27612392    -0.11500
C290        C  0.14126523  0.04301108  0.25565833    -0.13100
C291        C  0.36655569  0.04293033  0.23915615    -0.11500
C292        C  0.38632308  0.06400508  0.21899590    -0.13100
C293        C  0.22329264  0.36421177  0.32792728    -0.11500
C294        C  0.21347549  0.32480918  0.33020915    -0.13100
C295        C  0.26808980  0.10222853  0.33244736    -0.11500
C296        C  0.25824530  0.13175030  0.33486174    -0.13100
C297        C  0.00952381  0.07346456  0.33407004    -0.11500
C298        C  0.47176752  0.05480794  0.32753860    -0.13100
C299        C  0.38139154  0.10310769  0.40460502    -0.11500
C300        C  0.40409545  0.12646398  0.42334214    -0.13100
C301        C  0.09369584  0.16775408  0.44262642    -0.11500
C302        C  0.11372911  0.16639302  0.42264916    -0.13100
C303        C  0.34000219  0.41229838  0.38573382    -0.11500
C304        C  0.34053352  0.39264539  0.40611041    -0.13100
C305        C  0.14154702  0.28511157  0.50094646    -0.11500
C306        C  0.18098990  0.29494531  0.49876561    -0.13100
C307        C  0.37343285  0.24906774  0.49433422    -0.11500
C308        C  0.40309640  0.23934328  0.49643623    -0.13100
C309        C  0.43212346  0.49823251  0.49416996    -0.11500
C310        C  0.45077128  0.03611981  0.50035318    -0.13100
C311        C  0.29442272  0.40779189  0.57126693    -0.11500
C312        C  0.29452258  0.43082078  0.58998900    -0.13100
C313        C  0.44329115  0.12011413  0.60902428    -0.11500
C314        C  0.46361692  0.14022498  0.58876581    -0.13100
C315        C  0.46361891  0.36589235  0.57276699    -0.11500
C316        C  0.44292158  0.36558230  0.55267628    -0.13100
C317        C  0.14250838  0.39938474  0.66023619    -0.11500
C318        C  0.18182693  0.42913939  0.66266948    -0.13100
C319        C  0.37441800  0.16753804  0.66799901    -0.11500
C320        C  0.40404947  0.20695500  0.66574460    -0.13100
C321        C  0.45166480  0.45777043  0.66063349    -0.11500
C322        C  0.43234489  0.47641907  0.66673747    -0.13100
C323        C  0.09577264  0.46959137  0.71839148    -0.11500
C324        C  0.11519911  0.49066692  0.73860649    -0.13100
C325        C  0.38745736  0.36505756  0.94257563    -0.11500
C326        C  0.36722599  0.36585374  0.92253810    -0.13100
C327        C  0.25926092  0.16825989  0.82672396    -0.11500
C328        C  0.26919927  0.20768787  0.82907841    -0.13100
C329        C  0.47211487  0.45938228  0.83454808    -0.11500
C330        C  0.00990341  0.47852072  0.82774537    -0.13100
C331        C  0.22337872  0.40043011  0.83340316    -0.11500
C332        C  0.21331805  0.42987842  0.83108488    -0.13100
C333        C  0.40635689  0.32170674  0.73848202    -0.11500
C334        C  0.38342467  0.32194172  0.75721308    -0.13100
C335        C  0.34042678  0.46977062  0.77600645    -0.11500
C336        C  0.34104150  0.48990615  0.75554923    -0.13100
O337        O  0.33251831  0.88218270  0.88601020    -0.80100
C338        C  0.35984501  0.82510924  0.78075575     0.99300
O339        O  0.36907396  0.81646739  0.80385246    -0.69200
O340        O  0.41636926  0.88785663  0.83069947    -0.72800
Al341      Al  0.36464613  0.83547779  0.83947214     1.49000
C342        C  0.42891411  0.92595548  0.84002758     0.94500
O343        O  0.35471685  0.94631490  0.81831238    -0.79000
O344        O  0.24382685  0.84287271  0.82514275    -0.72600
Al345      Al  0.34255059  0.91064670  0.85076989     1.90100
O346        O  0.30731610  0.89583119  0.78954209    -0.71600
O347        O  0.26976203  0.77517031  0.81495186    -0.71500
O348        O  0.33181021  0.83786056  0.77840702    -0.77100
O349        O  0.31557560  0.77878395  0.84768295    -0.75300
O350        O  0.33152843  0.86101872  0.83195260    -1.11500
O351        O  0.37101307  0.84897719  0.87743477    -0.70700
C352        C  0.35505150  0.86481691  0.89420341     1.00100
C353        C  0.33415527  0.93594607  0.79568577     0.96400
Al354      Al  0.29123533  0.83914671  0.80488365     1.55600
O355        O  0.40419551  0.93468901  0.85413207    -0.75300
C356        C  0.28426222  0.75590712  0.83117255     1.00600
C357        C  0.25005422  0.87824503  0.83753436     0.95500
O358        O  0.28487483  0.90119057  0.85095305    -0.80600
O359        O  0.01493593  0.88158306  0.60905763    -0.80100
C360        C  0.43279772  0.82450143  0.71470870     0.99300
O361        O  0.41424724  0.81537071  0.69178460    -0.69200
O362        O  0.43729232  0.88672939  0.66516045    -0.72800
Al363      Al  0.43674586  0.83459339  0.65595112     1.49000
C364        C  0.46219330  0.92471250  0.65545629     0.94500
O365        O  0.05655675  0.94539951  0.67671426    -0.79000
O366        O  0.06458756  0.84163248  0.66847886    -0.72600
Al367      Al  0.03341907  0.91004124  0.64425326     1.90100
O368        O  0.05601517  0.89529452  0.70475786    -0.71600
O369        O  0.47157555  0.77441820  0.67985643    -0.71500
O370        O  0.47372684  0.83750964  0.71666046    -0.77100
O371        O  0.42923472  0.77816469  0.64731670    -0.75300
O372        O  0.49550466  0.86032756  0.66301034    -1.11500
O373        O  0.44329768  0.84840488  0.61792208    -0.70700
C374        C  0.47498265  0.86439574  0.60100153     1.00100
C375        C  0.06808762  0.93529532  0.69892411     0.96400
Al376      Al  0.01452336  0.83833492  0.68965816     1.55600
O377        O  0.49541264  0.93360563  0.64104603    -0.75300
C378        C  0.43764982  0.75520924  0.66372530     1.00600
C379        C  0.09369576  0.87739028  0.65640491     0.95500
O380        O  0.08195970  0.90125598  0.64397571    -0.80600
O381        O  0.35712989  0.54060508  0.71880905    -0.80100
C382        C  0.29790874  0.95725340  0.61370777     0.99300
O383        O  0.28910903  0.93887980  0.63668293    -0.69200
O384        O  0.36088258  0.96163491  0.66285610    -0.72800
Al385      Al  0.30897905  0.96156222  0.67238715     1.49000
C386        C  0.39902741  0.98653044  0.67237880     0.94500
O387        O  0.42020750  0.58054123  0.65067472    -0.79000
O388        O  0.31671624  0.58979194  0.65989567    -0.72600
Al389      Al  0.38530615  0.55828310  0.68346385     1.90100
O390        O  0.36971668  0.58080498  0.62330810    -0.71600
O391        O  0.24898570  0.49661215  0.64859781    -0.71500
O392        O  0.31142440  0.49835061  0.61164237    -0.77100
O393        O  0.25281393  0.95454495  0.68128335    -0.75300
O394        O  0.33503527  0.52033132  0.66507569    -1.11500
O395        O  0.32338479  0.96861310  0.71042583    -0.70700
C396        C  0.33967130  0.50072806  0.72713995     1.00100
C397        C  0.40976933  0.59248536  0.62871991     0.96400
Al398      Al  0.31293866  0.53952400  0.63862341     1.55600
O399        O  0.40818912  0.51975359  0.68690292    -0.75300
C400        C  0.22975076  0.96268664  0.66478912     1.00600
C401        C  0.35290579  0.61893977  0.67160166     0.95500
O402        O  0.37726299  0.60723095  0.68344160    -0.80600
O403        O  0.35629263  0.85818585  0.44298606    -0.80100
C404        C  0.29761384  0.88424864  0.54770316     0.99300
O405        O  0.28900807  0.89365993  0.52463445    -0.69200
O406        O  0.36068155  0.94180582  0.49822675    -0.72800
Al407      Al  0.30860614  0.88999509  0.48903853     1.49000
C408        C  0.39879962  0.95474747  0.48878193     0.94500
O409        O  0.41947105  0.88165766  0.51098842    -0.79000
O410        O  0.31578835  0.76933161  0.50255727    -0.72600
Al411      Al  0.38444372  0.86890559  0.47827693     1.90100
O412        O  0.36886303  0.83197874  0.53880849    -0.71600
O413        O  0.24813636  0.79508171  0.51321392    -0.71500
O414        O  0.31061651  0.85640580  0.55001046    -0.77100
O415        O  0.25218222  0.84088903  0.48040813    -0.75300
O416        O  0.33429370  0.85713667  0.49665865    -1.11500
O417        O  0.32282869  0.89665090  0.45106071    -0.70700
C418        C  0.33894069  0.88057570  0.43451434     1.00100
C419        C  0.40900230  0.85980360  0.53314285     0.96400
Al420      Al  0.31208961  0.81627859  0.52336322     1.55600
O421        O  0.40775604  0.93031376  0.47458968    -0.75300
C422        C  0.22906584  0.80964389  0.49688645     1.00600
C423        C  0.35172499  0.77605128  0.49067477     0.95500
O424        O  0.37592504  0.81181336  0.47849224    -0.80600
O425        O  0.01431282  0.67560979  0.55211643    -0.80100
C426        C  0.43049063  0.64996993  0.44701181     0.99300
O427        O  0.41223331  0.64033618  0.47002190    -0.69200
O428        O  0.43568751  0.59227002  0.49645069    -0.72800
Al429      Al  0.43523248  0.64390408  0.50572905     1.49000
C430        C  0.46083151  0.57939617  0.50598803     0.94500
O431        O  0.05430355  0.65238299  0.48421103    -0.79000
O432        O  0.06353040  0.76481432  0.49266027    -0.72600
Al433      Al  0.03202639  0.66510267  0.51684180     1.90100
O434        O  0.05384258  0.70216437  0.45629742    -0.71600
O435        O  0.47014995  0.73920718  0.48194840    -0.71500
O436        O  0.47133988  0.67812393  0.44488989    -0.77100
O437        O  0.42777808  0.69281032  0.51440539    -0.75300
O438        O  0.49390238  0.67697288  0.49835192    -1.11500
O439        O  0.44247902  0.63702918  0.54375578    -0.70700
C440        C  0.47452479  0.65300489  0.56044223     1.00100
C441        C  0.06580685  0.67411153  0.46202817     0.96400
Al442      Al  0.01282699  0.71802434  0.47173417     1.55600
O443        O  0.49388238  0.60373751  0.52048753    -0.75300
C444        C  0.43628987  0.72439372  0.49814905     1.00600
C445        C  0.09266491  0.75800473  0.50454482     0.95500
O446        O  0.08088739  0.72220490  0.51673151    -0.80600
O447        O  0.33233599  0.99161402  0.27573995    -0.80100
C448        C  0.35821806  0.57589207  0.38096946     0.99300
O449        O  0.36789413  0.59371055  0.35785735    -0.69200
O450        O  0.41561241  0.57016790  0.33109141    -0.72800
Al451      Al  0.36372287  0.57041518  0.32223562     1.49000
C452        C  0.42837641  0.54477749  0.32181892     0.94500
O453        O  0.35466255  0.95036207  0.34360649    -0.79000
O454        O  0.24334628  0.94196544  0.33630960    -0.72600
Al455      Al  0.34240610  0.97346800  0.31107468     1.90100
O456        O  0.30664908  0.95277464  0.37216510    -0.71600
O457        O  0.26849140  0.53516099  0.34652944    -0.71500
O458        O  0.33028191  0.53503841  0.38329551    -0.77100
O459        O  0.31450153  0.57767203  0.31395990    -0.75300
O460        O  0.33083772  0.51175052  0.32975175    -1.11500
O461        O  0.37014995  0.56329096  0.28424829    -0.70700
C462        C  0.35439557  0.53145932  0.26747766     1.00100
C463        C  0.33381034  0.93987868  0.36612110     0.96400
Al464      Al  0.29033743  0.99313292  0.35672416     1.55600
O465        O  0.40385866  0.51129446  0.30768602    -0.75300
C466        C  0.28303811  0.56900777  0.33038235     1.00600
C467        C  0.24989066  0.91299744  0.32399911     0.95500
O468        O  0.28498997  0.92499922  0.31089443    -0.80600
O469        O  0.14833934  0.64937953  0.38632394    -0.80100
C470        C  0.12405518  0.70816567  0.28089816     0.99300
O471        O  0.11407780  0.71637954  0.30389453    -0.69200
O472        O  0.06591383  0.64498335  0.33040015    -0.72800
Al473      Al  0.11761862  0.69710516  0.33956956     1.49000
C474        C  0.05291534  0.60679412  0.33969971     0.94500
O475        O  0.12692320  0.58628183  0.31827623    -0.79000
O476        O  0.23838711  0.68948471  0.32663650    -0.72600
Al477      Al  0.13876598  0.62136928  0.35094947     1.90100
O478        O  0.17589705  0.63698349  0.29021714    -0.71600
O479        O  0.21331276  0.75750001  0.31603190    -0.71500
O480        O  0.15223271  0.69555235  0.27882025    -0.77100
O481        O  0.16658795  0.75360281  0.34819294    -0.75300
O482        O  0.15065846  0.67143479  0.33234015    -1.11500
O483        O  0.11059031  0.68331228  0.37747226    -0.70700
C484        C  0.12608229  0.66715947  0.39435131     1.00100
C485        C  0.14831286  0.59684961  0.29593949     0.96400
Al486      Al  0.19182386  0.69361363  0.30575102     1.55600
O487        O  0.07719798  0.59772632  0.35397243    -0.75300
C488        C  0.19844604  0.77663081  0.33207507     1.00600
C489        C  0.23158583  0.65373753  0.33875336     0.95500
O490        O  0.19612280  0.63023235  0.35144013    -0.80600
O491        O  0.46756623  0.65174253  0.10923356    -0.80100
C492        C  0.05117035  0.70866813  0.21484732     0.99300
O493        O  0.06922303  0.71740100  0.19179374    -0.69200
O494        O  0.04519965  0.64608691  0.16489726    -0.72800
Al495      Al  0.04604777  0.69850127  0.15609847     1.49000
C496        C  0.01965582  0.60797657  0.15555713     0.94500
O497        O  0.42443449  0.58786784  0.17687249    -0.79000
O498        O  0.41811080  0.69170688  0.17001518    -0.72600
Al499      Al  0.44860919  0.62350238  0.14453379     1.90100
O500        O  0.42754357  0.63816641  0.20574698    -0.71600
O501        O  0.51185657  0.75902334  0.18058909    -0.71500
O502        O  0.01036104  0.69596684  0.21711148    -0.77100
O503        O  0.05392860  0.75521199  0.14782681    -0.75300
O504        O  0.48723855  0.67302212  0.16345937    -1.11500
O505        O  0.03923728  0.68507188  0.11809384    -0.70700
C506        C  0.50756358  0.66907532  0.10117819     1.00100
C507        C  0.41408782  0.59805304  0.19947855     0.96400
Al508      Al  0.46878061  0.69496354  0.19049682     1.55600
O509        O  0.48589328  0.59903511  0.14161152    -0.75300
C510        C  0.04576216  0.77823744  0.16433845     1.00600
C511        C  0.38905182  0.65657925  0.15736769     0.95500
O512        O  0.40088491  0.63360621  0.14398737    -0.80600
O513        O  0.12520346  0.99245926  0.21883185    -0.80100
C514        C  0.18447773  0.57651402  0.11392995     0.99300
O515        O  0.19277919  0.59463742  0.13696779    -0.69200
O516        O  0.12083772  0.57116828  0.16313048    -0.72800
Al517      Al  0.17297688  0.57161233  0.17259090     1.49000
C518        C  0.08265507  0.54598323  0.17251774     0.94500
O519        O  0.06254489  0.95237134  0.15058024    -0.79000
O520        O  0.16627886  0.94389656  0.15965537    -0.72600
Al521      Al  0.09725943  0.97477729  0.18342201     1.90100
O522        O  0.11341548  0.95319004  0.12306274    -0.71600
O523        O  0.23383979  0.53728613  0.14887730    -0.71500
O524        O  0.17154465  0.53564706  0.11175057    -0.77100
O525        O  0.22938880  0.57913223  0.18146573    -0.75300
O526        O  0.14748550  0.51301751  0.16513510    -1.11500
O527        O  0.15857478  0.56428738  0.21057656    -0.70700
C528        C  0.14255436  0.53222803  0.22723430     1.00100
C529        C  0.07324829  0.94102705  0.12849207     0.96400
Al530      Al  0.17001807  0.99444929  0.13862200     1.55600
O531        O  0.07375807  0.51273356  0.18686810    -0.75300
C532        C  0.25270559  0.57104363  0.16514575     1.00600
C533        C  0.13029790  0.91467392  0.17152763     0.95500
O534        O  0.10587391  0.92623642  0.18340816    -0.80600
O535        O  0.12658341  0.67535132  0.94289768    -0.80100
C536        C  0.18521363  0.64977683  0.04788176     0.99300
O537        O  0.19340613  0.63991326  0.02483234    -0.69200
O538        O  0.12203704  0.59187750  0.99819466    -0.72800
Al539      Al  0.17414219  0.64372644  0.98917607     1.49000
C540        C  0.08402522  0.57892082  0.98858685     0.94500
O541        O  0.06335827  0.65240242  0.01101693    -0.79000
O542        O  0.16674849  0.76459022  0.00252875    -0.72600
Al543      Al  0.09841067  0.66490424  0.97825778     1.90100
O544        O  0.11399243  0.70191807  0.03890537    -0.71600
O545        O  0.23469253  0.73910862  0.01304389    -0.71500
O546        O  0.17264258  0.67796815  0.05010679    -0.77100
O547        O  0.23056484  0.69268577  0.98062592    -0.75300
O548        O  0.14851296  0.67669715  0.99670654    -1.11500
O549        O  0.16025350  0.63715431  0.95115762    -0.70700
C550        C  0.14413879  0.65307372  0.93451022     1.00100
C551        C  0.07382661  0.67416760  0.03322364     0.96400
Al552      Al  0.17077064  0.71776846  0.02334437     1.55600
O553        O  0.07499660  0.60352411  0.97464987    -0.75300
C554        C  0.25369474  0.72428228  0.99685467     1.00600
C555        C  0.13090198  0.75774668  0.99046700     0.95500
O556        O  0.10691819  0.72194645  0.97829058    -0.80600
O557        O  0.46845096  0.85821941  0.05180162    -0.80100
C558        C  0.05167599  0.88365705  0.94654473     0.99300
O559        O  0.07008617  0.89196043  0.96951963    -0.69200
O560        O  0.04717204  0.94083556  0.99578870    -0.72800
Al561      Al  0.04708765  0.88904624  0.00525962     1.49000
C562        C  0.02206875  0.95393709  0.00512292     0.94500
O563        O  0.42739568  0.88083012  0.98407775    -0.79000
O564        O  0.41899904  0.76884740  0.99204784    -0.72600
Al565      Al  0.45037836  0.86841697  0.01655026     1.90100
O566        O  0.42795073  0.83134042  0.95601491    -0.71600
O567        O  0.51243685  0.79474131  0.98085688    -0.71500
O568        O  0.01060550  0.85640242  0.94440035    -0.77100
O569        O  0.05355228  0.83964348  0.01420377    -0.75300
O570        O  0.48835693  0.85649091  0.99790271    -1.11500
O571        O  0.04029161  0.89665894  0.04323401    -0.70700
C572        C  0.00841325  0.88092477  0.06001367     1.00100
C573        C  0.41572994  0.85910367  0.96190273     0.96400
Al574      Al  0.46935270  0.81583775  0.97109732     1.55600
O575        O  0.48883230  0.92988003  0.01969384    -0.75300
C576        C  0.04575595  0.80883676  0.99746686     1.00600
C577        C  0.38998298  0.77553609  0.00423062     0.95500
O578        O  0.40181081  0.81112788  0.01671796    -0.80600
O579        O  0.14881513  0.54177722  0.77530593    -0.80100
C580        C  0.12387314  0.95736019  0.88035816     0.99300
O581        O  0.11390869  0.93927461  0.85730974    -0.69200
O582        O  0.06601044  0.96273792  0.83076548    -0.72800
Al583      Al  0.11775650  0.96237460  0.82164537     1.49000
C584        C  0.05315708  0.98821654  0.82179987     0.94500
O585        O  0.12731028  0.58259069  0.84363675    -0.79000
O586        O  0.23876712  0.59034298  0.83488513    -0.72600
Al587      Al  0.13914065  0.55969249  0.81080211     1.90100
O588        O  0.17653523  0.58079860  0.87138859    -0.71600
O589        O  0.21295509  0.49694606  0.84546568    -0.71500
O590        O  0.15192428  0.49813776  0.88251924    -0.77100
O591        O  0.16669691  0.95462674  0.81306483    -0.75300
O592        O  0.15078627  0.52110475  0.82912443    -1.11500
O593        O  0.11119690  0.96974661  0.78371822    -0.70700
C594        C  0.12688420  0.50185417  0.76699970     1.00100
C595        C  0.14904173  0.59351240  0.86584659     0.96400
Al596      Al  0.19188824  0.53970472  0.85574004     1.55600
O597        O  0.07753737  0.52198642  0.80761659    -0.75300
C598        C  0.19834561  0.96312738  0.82929748     1.00600
C599        C  0.23220832  0.61960163  0.82296232     0.95500
O600        O  0.19658730  0.60803981  0.81057327    -0.80600
C601        C  0.07821419  0.90753519  0.92292870    -0.11500
C602        C  0.10083056  0.93065653  0.90409478    -0.13100
C603        C  0.14284847  0.64094346  0.90610173    -0.11500
C604        C  0.14333979  0.62120798  0.88571400    -0.13100
C605        C  0.10916655  0.78473963  0.99378819    -0.11500
C606        C  0.07934280  0.79429238  0.99567240    -0.13100
C607        C  0.30189973  0.73913880  0.99855634    -0.11500
C608        C  0.34127357  0.74873885  0.00059391    -0.13100
C609        C  0.03231884  0.99723483  0.99938858    -0.11500
C610        C  0.05103025  0.53523667  0.99347159    -0.13100
C611        C  0.18818954  0.60326610  0.09025221    -0.11500
C612        C  0.18846313  0.62639184  0.07152590    -0.13100
C613        C  0.03975316  0.91343467  0.10865691    -0.11500
C614        C  0.01944580  0.89356333  0.08832759    -0.13100
C615        C  0.01910782  0.66779073  0.07292056    -0.11500
C616        C  0.03999181  0.66833893  0.05283193    -0.13100
C617        C  0.34031915  0.63443280  0.16126851    -0.11500
C618        C  0.30091112  0.60465464  0.16340668    -0.13100
C619        C  0.07928926  0.82644592  0.16621268    -0.11500
C620        C  0.10892322  0.86592787  0.16821692    -0.13100
C621        C  0.04934125  0.55609886  0.16692725    -0.11500
C622        C  0.03001016  0.57475498  0.16078014    -0.13100
C623        C  0.10087617  0.71155464  0.25715581    -0.11500
C624        C  0.07789783  0.71167798  0.23843219    -0.13100
C625        C  0.14207363  0.56325517  0.27609316    -0.11500
C626        C  0.14129751  0.54301720  0.25565198    -0.13100
C627        C  0.36646196  0.54283288  0.23911300    -0.11500
C628        C  0.38624953  0.56392492  0.21895928    -0.13100
C629        C  0.22341460  0.86429958  0.32797957    -0.11500
C630        C  0.21360413  0.82489714  0.33025481    -0.13100
C631        C  0.26800409  0.60214820  0.33243924    -0.11500
C632        C  0.25819015  0.63169302  0.33485450    -0.13100
C633        C  0.00954903  0.57363695  0.33399226    -0.11500
C634        C  0.47169336  0.55478928  0.32746657    -0.13100
C635        C  0.38132365  0.60298174  0.40457563    -0.11500
C636        C  0.40402953  0.62633651  0.42331561    -0.13100
C637        C  0.09348256  0.66771758  0.44254083    -0.11500
C638        C  0.11356622  0.66636744  0.42258711    -0.13100
C639        C  0.34001918  0.91232909  0.38575636    -0.11500
C640        C  0.34050071  0.89263072  0.40612242    -0.13100
C641        C  0.14140718  0.78504002  0.50091935    -0.11500
C642        C  0.18085220  0.79487430  0.49874293    -0.13100
C643        C  0.37331191  0.74899662  0.49430715    -0.11500
C644        C  0.40296638  0.73925659  0.49640139    -0.13100
C645        C  0.43196100  0.99820913  0.49414483    -0.11500
C646        C  0.45089102  0.53613190  0.50040280    -0.13100
C647        C  0.29424464  0.90766501  0.57126501    -0.11500
C648        C  0.29434610  0.93068737  0.58999002    -0.13100
C649        C  0.44341952  0.62028457  0.60903504    -0.11500
C650        C  0.46371297  0.64037874  0.58876369    -0.13100
C651        C  0.46354299  0.86593702  0.57277644    -0.11500
C652        C  0.44279565  0.86558066  0.55269866    -0.13100
C653        C  0.14235561  0.89925761  0.66025510    -0.11500
C654        C  0.18167476  0.92902177  0.66267249    -0.13100
C655        C  0.37455505  0.66763384  0.66801085    -0.11500
C656        C  0.40420078  0.70704092  0.66574464    -0.13100
C657        C  0.45157047  0.95768869  0.66068638    -0.11500
C658        C  0.43218714  0.97628017  0.66677279    -0.13100
C659        C  0.09558319  0.96938885  0.71846340    -0.11500
C660        C  0.11505839  0.99049032  0.73865950    -0.13100
C661        C  0.38765157  0.86513058  0.94254668    -0.11500
C662        C  0.36744098  0.86594260  0.92250537    -0.13100
C663        C  0.25931907  0.66826280  0.82679619    -0.11500
C664        C  0.26929646  0.70769973  0.82915179    -0.13100
C665        C  0.47221593  0.95945946  0.83441726    -0.11500
C666        C  0.00991026  0.97818712  0.82779144    -0.13100
C667        C  0.22353794  0.90046590  0.83338562    -0.11500
C668        C  0.21349978  0.92993046  0.83106944    -0.13100
C669        C  0.40648235  0.82166803  0.73848503    -0.11500
C670        C  0.38353138  0.82187710  0.75721178    -0.13100
C671        C  0.34038108  0.96970437  0.77597439    -0.11500
C672        C  0.34094050  0.98983941  0.75553145    -0.13100
O673        O  0.83241594  0.38218726  0.88602576    -0.80100
C674        C  0.85990809  0.32523870  0.78076205     0.99300
O675        O  0.86916651  0.31663137  0.80386091    -0.69200
O676        O  0.91636544  0.38796932  0.83076359    -0.72800
Al677      Al  0.86465011  0.33555599  0.83949079     1.49000
C678        C  0.92887545  0.42605820  0.84009438     0.94500
O679        O  0.85465531  0.44635276  0.81833832    -0.79000
O680        O  0.74378337  0.34286163  0.82513072    -0.72600
Al681      Al  0.84247249  0.41067092  0.85079128     1.90100
O682        O  0.80729325  0.39586924  0.78955218    -0.71600
O683        O  0.76977852  0.27520664  0.81493427    -0.71500
O684        O  0.83182864  0.33793264  0.77841205    -0.77100
O685        O  0.81560409  0.27882021  0.84765587    -0.75300
O686        O  0.83150261  0.36106265  0.83196511    -1.11500
O687        O  0.87092790  0.34899326  0.87746431    -0.70700
C688        C  0.85493970  0.36481610  0.89422745     1.00100
C689        C  0.83411815  0.43598423  0.79570315     0.96400
Al690      Al  0.79122811  0.33918325  0.80488303     1.55600
O691        O  0.90412177  0.43475926  0.85418607    -0.75300
C692        C  0.78429533  0.25594475  0.83114280     1.00600
C693        C  0.74997618  0.37821902  0.83752524     0.95500
O694        O  0.78478482  0.40117942  0.85095036    -0.80600
O695        O  0.51501184  0.38160090  0.60904071    -0.80100
C696        C  0.93283782  0.32460737  0.71469874     0.99300
O697        O  0.91428517  0.31548029  0.69177428    -0.69200
O698        O  0.93735643  0.38680285  0.66510771    -0.72800
Al699      Al  0.93678600  0.33464419  0.65593134     1.49000
C700        C  0.96226655  0.42477327  0.65539064     0.94500
O701        O  0.55660450  0.44544975  0.67668914    -0.79000
O702        O  0.56459902  0.34164653  0.66848524    -0.72600
Al703      Al  0.53348142  0.41007831  0.64423070     1.90100
O704        O  0.55604152  0.39534488  0.70474309    -0.71600
O705        O  0.97158725  0.27445383  0.67986737    -0.71500
O706        O  0.97375973  0.33758136  0.71664986    -0.77100
O707        O  0.92923582  0.27818655  0.64733041    -0.75300
O708        O  0.99554214  0.36036265  0.66299445    -1.11500
O709        O  0.94336018  0.34841518  0.61789283    -0.70700
C710        C  0.97505522  0.36439638  0.60097736     1.00100
C711        C  0.56812187  0.43534552  0.69890465     0.96400
Al712      Al  0.51453965  0.33838415  0.68965288     1.55600
O713        O  0.99548218  0.43363915  0.64098561    -0.75300
C714        C  0.93765297  0.25523760  0.66374336     1.00600
C715        C  0.59372499  0.37739711  0.65641342     0.95500
O716        O  0.58201148  0.40127722  0.64398055    -0.80600
O717        O  0.85707792  0.04058298  0.71882414    -0.80100
C718        C  0.79795814  0.45722013  0.61369952     0.99300
O719        O  0.78917399  0.43885182  0.63667636    -0.69200
O720        O  0.86094994  0.46163974  0.66284756    -0.72800
Al721      Al  0.80903699  0.46154577  0.67237958     1.49000
C722        C  0.89910148  0.48655944  0.67235239     0.94500
O723        O  0.92016597  0.08051902  0.65069292    -0.79000
O724        O  0.81669776  0.08982098  0.65992085    -0.72600
Al725      Al  0.88525958  0.05826598  0.68347968     1.90100
O726        O  0.86969514  0.08083171  0.62333103    -0.71600
O727        O  0.74894631  0.99664590  0.64860387    -0.71500
O728        O  0.81138956  0.99838711  0.61165402    -0.77100
O729        O  0.75285851  0.45450204  0.68127390    -0.75300
O730        O  0.83498629  0.02033768  0.66508838    -1.11500
O731        O  0.82344206  0.46861309  0.71041980    -0.70700
C732        C  0.83962357  0.00070146  0.72714733     1.00100
C733        C  0.90974184  0.09248532  0.62874181     0.96400
Al734      Al  0.81290802  0.03955434  0.63863938     1.55600
O735        O  0.90811282  0.01970971  0.68691248    -0.75300
C736        C  0.72978785  0.46264725  0.66478757     1.00600
C737        C  0.85289440  0.11895981  0.67162592     0.95500
O738        O  0.87724324  0.10723509  0.68346193    -0.80600
O739        O  0.85634077  0.35818370  0.44295693    -0.80100
C740        C  0.79768826  0.38421933  0.54769551     0.99300
O741        O  0.78904260  0.39359781  0.52462826    -0.69200
O742        O  0.86070345  0.44177054  0.49821133    -0.72800
Al743      Al  0.80864458  0.38994829  0.48902802     1.49000
C744        C  0.89882099  0.45473072  0.48875934     0.94500
O745        O  0.91955865  0.38166358  0.51095300    -0.79000
O746        O  0.81589122  0.26933025  0.50254500    -0.72600
Al747      Al  0.88450804  0.36890356  0.47824721     1.90100
O748        O  0.86897224  0.33198719  0.53878285    -0.71600
O749        O  0.74822646  0.29505308  0.51322242    -0.71500
O750        O  0.81072705  0.35640438  0.55000042    -0.77100
O751        O  0.75224110  0.34081993  0.48039918    -0.75300
O752        O  0.83436359  0.35711784  0.49664133    -1.11500
O753        O  0.82285569  0.39662117  0.45105040    -0.70700
C754        C  0.83897305  0.38056548  0.43449493     1.00100
C755        C  0.90910556  0.35981523  0.53310988     0.96400
Al756      Al  0.81218992  0.31627060  0.52335289     1.55600
O757        O  0.90779539  0.43030910  0.47456759    -0.75300
C758        C  0.72914076  0.30959377  0.49689163     1.00600
C759        C  0.85182390  0.27605829  0.49065291     0.95500
O760        O  0.87600110  0.31181325  0.47845600    -0.80600
O761        O  0.51436370  0.17560356  0.55216395    -0.80100
C762        C  0.93062780  0.15002612  0.44703435     0.99300
O763        O  0.91235904  0.14045450  0.47004182    -0.69200
O764        O  0.93577462  0.09233990  0.49646701    -0.72800
Al765      Al  0.93534610  0.14398159  0.50575183     1.49000
C766        C  0.96089871  0.07944340  0.50600974     0.94500
O767        O  0.55447342  0.15244590  0.48427913    -0.79000
O768        O  0.56363925  0.26482515  0.49268329    -0.72600
Al769      Al  0.53212677  0.16513030  0.51689521     1.90100
O770        O  0.55397690  0.20217668  0.45633974    -0.71600
O771        O  0.97028121  0.23924692  0.48194624    -0.71500
O772        O  0.97149107  0.17813103  0.44491495    -0.77100
O773        O  0.92794623  0.19291490  0.51443907    -0.75300
O774        O  0.99402266  0.17702324  0.49838660    -1.11500
O775        O  0.94254069  0.13705318  0.54377599    -0.70700
C776        C  0.97456374  0.15301211  0.56047637     1.00100
C777        C  0.56596549  0.17415039  0.46208764     0.96400
Al778      Al  0.51295298  0.21803209  0.47175770     1.55600
O779        O  0.99396314  0.10377228  0.52050611    -0.75300
C780        C  0.93643774  0.22446487  0.49815924     1.00600
C781        C  0.59275988  0.25802324  0.50459353     0.95500
O782        O  0.58096863  0.22224931  0.51681776    -0.80600
O783        O  0.83229463  0.49159117  0.27572017    -0.80100
C784        C  0.85832855  0.07595178  0.38099385     0.99300
O785        O  0.86802602  0.09376740  0.35788151    -0.69200
O786        O  0.91569338  0.07018359  0.33110500    -0.72800
Al787      Al  0.86381977  0.07046807  0.32225789     1.49000
C788        C  0.92843093  0.04476635  0.32184364     0.94500
O789        O  0.85465101  0.45038662  0.34360100    -0.79000
O790        O  0.74328997  0.44193194  0.33627782    -0.72600
Al791      Al  0.84237209  0.47346249  0.31106262     1.90100
O792        O  0.80658902  0.45274053  0.37214426    -0.71600
O793        O  0.76857986  0.03524017  0.34654979    -0.71500
O794        O  0.83036006  0.03510695  0.38331952    -0.77100
O795        O  0.81462062  0.07776945  0.31399617    -0.75300
O796        O  0.83090553  0.01180424  0.32977435    -1.11500
O797        O  0.87021617  0.06333288  0.28426589    -0.70700
C798        C  0.85443286  0.03149467  0.26749899     1.00100
C799        C  0.83378115  0.43987798  0.36610969     0.96400
Al800      Al  0.79026780  0.49309775  0.35670054     1.55600
O801        O  0.90390214  0.01129821  0.30770205    -0.75300
C802        C  0.78314393  0.06909617  0.33040987     1.00600
C803        C  0.74985016  0.41296565  0.32397838     0.95500
O804        O  0.78496653  0.42496933  0.31089098    -0.80600
O805        O  0.64842647  0.14939023  0.38635349    -0.80100
C806        C  0.62398985  0.20805681  0.28092252     0.99300
O807        O  0.61401924  0.21628084  0.30391975    -0.69200
O808        O  0.56591199  0.14491558  0.33046342    -0.72800
Al809      Al  0.61761422  0.19705929  0.33960574     1.49000
C810        C  0.55293423  0.10673625  0.33977194     0.94500
O811        O  0.62691557  0.08625616  0.31831160    -0.79000
O812        O  0.73841020  0.18951194  0.32666227    -0.72600
Al813      Al  0.63880265  0.12135351  0.35098463     1.90100
O814        O  0.67591295  0.13695083  0.29025775    -0.71600
O815        O  0.71328070  0.25747198  0.31603039    -0.71500
O816        O  0.65219036  0.19547137  0.27884523    -0.77100
O817        O  0.66657399  0.25358116  0.34820038    -0.75300
O818        O  0.65066696  0.17140739  0.33237160    -1.11500
O819        O  0.61064906  0.18330296  0.37751897    -0.70700
C820        C  0.62617482  0.16717105  0.39439177     1.00100
C821        C  0.64831102  0.09682046  0.29597638     0.96400
Al822      Al  0.69181690  0.19358512  0.30577364     1.55600
O823        O  0.57723535  0.09769970  0.35404856    -0.75300
C824        C  0.69841565  0.27660495  0.33207135     1.00600
C825        C  0.73163215  0.15376639  0.33877030     0.95500
O826        O  0.69615962  0.13021954  0.35143799    -0.80600
O827        O  0.96747316  0.15172299  0.10923010    -0.80100
C828        C  0.55109882  0.20854093  0.21485473     0.99300
O829        O  0.56915180  0.21723972  0.19180039    -0.69200
O830        O  0.54507948  0.14596527  0.16485960    -0.72800
Al831      Al  0.54597894  0.19841354  0.15609452     1.49000
C832        C  0.51952295  0.10787347  0.15550096     0.94500
O833        O  0.92436691  0.08781910  0.17686260    -0.79000
O834        O  0.91810485  0.19171314  0.17001863    -0.72600
Al835      Al  0.94852306  0.12345634  0.14452317     1.90100
O836        O  0.92750178  0.13813241  0.20573805    -0.71600
O837        O  0.01186219  0.25896921  0.18059281    -0.71500
O838        O  0.51030187  0.19590045  0.21711507    -0.77100
O839        O  0.55393160  0.25516407  0.14785744    -0.75300
O840        O  0.98718962  0.17295695  0.16345430    -1.11500
O841        O  0.53914489  0.18503255  0.11807921    -0.70700
C842        C  0.00746643  0.16904644  0.10116595     1.00100
C843        C  0.91403552  0.09801658  0.19947058     0.96400
Al844      Al  0.96876050  0.19492196  0.19049539     1.55600
O845        O  0.98576015  0.09894142  0.14155602    -0.75300
C846        C  0.54575971  0.27819139  0.16436366     1.00600
C847        C  0.88901707  0.15658978  0.15738105     0.95500
O848        O  0.90081443  0.13358175  0.14400945    -0.80600
O849        O  0.62525987  0.49246237  0.21882661    -0.80100
C850        C  0.68441419  0.07660406  0.11394403     0.99300
O851        O  0.69270334  0.09471310  0.13698551    -0.69200
O852        O  0.62074984  0.07118611  0.16314298    -0.72800
Al853      Al  0.67290506  0.07166065  0.17260260     1.49000
C854        C  0.58255724  0.04595851  0.17250291     0.94500
O855        O  0.56259783  0.45241766  0.15057166    -0.79000
O856        O  0.66630261  0.44384203  0.15968781    -0.72600
Al857      Al  0.59730897  0.47479046  0.18341574     1.90100
O858        O  0.61344002  0.45312179  0.12307864    -0.71600
O859        O  0.73379877  0.03736929  0.14888217    -0.71500
O860        O  0.67150677  0.03574420  0.11175544    -0.77100
O861        O  0.72933593  0.07921105  0.18147064    -0.75300
O862        O  0.64743729  0.01306776  0.16513577    -1.11500
O863        O  0.65850257  0.06431645  0.21058874    -0.70700
C864        C  0.64249302  0.03224969  0.22724080     1.00100
C865        C  0.57328233  0.44102145  0.12849602     0.96400
Al866      Al  0.67005921  0.49438129  0.13862919     1.55600
O867        O  0.57367659  0.01271944  0.18685870    -0.75300
C868        C  0.75265899  0.07112337  0.16515358     1.00600
C869        C  0.63030049  0.41462988  0.17154664     0.95500
O870        O  0.60586503  0.42620805  0.18339812    -0.80600
O871        O  0.62649067  0.17530812  0.94286975    -0.80100
C872        C  0.68510284  0.14984139  0.04789416     0.99300
O873        O  0.69330577  0.13997002  0.02485057    -0.69200
O874        O  0.62196029  0.09190536  0.99820185    -0.72800
Al875      Al  0.67405474  0.14375724  0.98918636     1.49000
C876        C  0.58394785  0.07892737  0.98858934     0.94500
O877        O  0.56323703  0.15244281  0.01097950    -0.79000
O878        O  0.66661416  0.26459863  0.00249651    -0.72600
Al879      Al  0.59830928  0.16490509  0.97822801     1.90100
O880        O  0.61386037  0.20194522  0.03887696    -0.71600
O881        O  0.73457160  0.23915385  0.01304135    -0.71500
O882        O  0.67251632  0.17802217  0.05010577    -0.77100
O883        O  0.73046899  0.19272268  0.98063738    -0.75300
O884        O  0.64840442  0.17671662  0.99669425    -1.11500
O885        O  0.66019166  0.13715464  0.95116650    -0.70700
C886        C  0.64407658  0.15304803  0.93450226     1.00100
C887        C  0.57369719  0.17420105  0.03318924     0.96400
Al888      Al  0.67064261  0.21780042  0.02332750     1.55600
O889        O  0.57489575  0.10351840  0.97465647    -0.75300
C890        C  0.75358629  0.22432804  0.99686243     1.00600
C891        C  0.63077831  0.25774465  0.99041692     0.95500
O892        O  0.60682738  0.22195370  0.97822201    -0.80600
O893        O  0.96839468  0.35825349  0.05183040    -0.80100
C894        C  0.55152891  0.38361672  0.94655098     0.99300
O895        O  0.56994631  0.39188377  0.96952263    -0.69200
O896        O  0.54708579  0.44079364  0.99580386    -0.72800
Al897      Al  0.54696502  0.38898968  0.00526615     1.49000
C898        C  0.52200190  0.45391998  0.00513743     0.94500
O899        O  0.92722120  0.38078636  0.98412459    -0.79000
O900        O  0.91886444  0.26885503  0.99204895    -0.72600
Al901      Al  0.95027391  0.36841146  0.01658269     1.90100
O902        O  0.92781835  0.33135401  0.95603359    -0.71600
O903        O  0.01228857  0.29472693  0.98084119    -0.71500
O904        O  0.51045037  0.35639724  0.94440957    -0.77100
O905        O  0.55338180  0.33956053  0.01420713    -0.75300
O906        O  0.98823374  0.35648013  0.99791640    -1.11500
O907        O  0.54021618  0.39663142  0.04323812    -0.70700
C908        C  0.50835946  0.38093129  0.06003007     1.00100
C909        C  0.91557027  0.35908716  0.96193976     0.96400
Al910      Al  0.96921336  0.31584135  0.97110159     1.55600
O911        O  0.98873384  0.42988320  0.01968700    -0.75300
C912        C  0.54558805  0.30877581  0.99745348     1.00600
C913        C  0.88986911  0.27554177  0.00426046     0.95500
O914        O  0.90172104  0.31110761  0.01678704    -0.80600
O915        O  0.64887116  0.04177657  0.77529913    -0.80100
C916        C  0.62373182  0.45730308  0.88036361     0.99300
O917        O  0.61372943  0.43922632  0.85731386    -0.69200
O918        O  0.56589364  0.46274918  0.83076292    -0.72800
Al919      Al  0.61762023  0.46233657  0.82165022     1.49000
C920        C  0.55307420  0.48825961  0.82180624     0.94500
O921        O  0.62736510  0.08258375  0.84363406    -0.79000
O922        O  0.73885404  0.09039152  0.83486233    -0.72600
Al923      Al  0.63920262  0.05969277  0.81079811     1.90100
O924        O  0.67663090  0.08085006  0.87137524    -0.71600
O925        O  0.71306877  0.99699598  0.84546660    -0.71500
O926        O  0.65202629  0.99819115  0.88251485    -0.77100
O927        O  0.66653269  0.45453066  0.81308512    -0.75300
O928        O  0.65088368  0.02113130  0.82911900    -1.11500
O929        O  0.61110342  0.46973419  0.78371803    -0.70700
C930        C  0.62693937  0.00184914  0.76699969     1.00100
C931        C  0.64910912  0.09353038  0.86583914     0.96400
Al932      Al  0.69199035  0.03975481  0.85573106     1.55600
O933        O  0.57760655  0.02195451  0.80762450    -0.75300
C934        C  0.69820396  0.46304484  0.82930262     1.00600
C935        C  0.73227491  0.11963777  0.82293837     0.95500
O936        O  0.69663998  0.10805932  0.81056101    -0.80600
C937        C  0.57806995  0.40749201  0.92293610    -0.11500
C938        C  0.60068844  0.43060595  0.90410124    -0.13100
C939        C  0.64283888  0.14092182  0.90609597    -0.11500
C940        C  0.64337757  0.12120539  0.88570992    -0.13100
C941        C  0.60901265  0.28470689  0.99374337    -0.11500
C942        C  0.57917848  0.29424148  0.99563850    -0.13100
C943        C  0.80179047  0.23919176  0.99857293    -0.11500
C944        C  0.84115958  0.24878024  0.00061525    -0.13100
C945        C  0.53231922  0.49724202  0.99942280    -0.11500
C946        C  0.55098583  0.03522580  0.99346007    -0.13100
C947        C  0.68810737  0.10336130  0.09027273    -0.11500
C948        C  0.68836300  0.12647844  0.07154651    -0.13100
C949        C  0.53977332  0.41344498  0.10866248    -0.11500
C950        C  0.51943344  0.39357868  0.08833989    -0.13100
C951        C  0.51899293  0.16780535  0.07290112    -0.11500
C952        C  0.53986114  0.16836363  0.05280079    -0.13100
C953        C  0.84028678  0.13448570  0.16128503    -0.11500
C954        C  0.80086966  0.10472629  0.16342274    -0.13100
C955        C  0.57929026  0.32639857  0.16624251    -0.11500
C956        C  0.60892304  0.36588101  0.16824794    -0.13100
C957        C  0.54920824  0.05600697  0.16687102    -0.11500
C958        C  0.52985418  0.07463094  0.16070415    -0.13100
C959        C  0.60078759  0.21141224  0.25717735    -0.11500
C960        C  0.57781227  0.21152991  0.23844699    -0.13100
C961        C  0.64204918  0.06323207  0.27612097    -0.11500
C962        C  0.64125559  0.04301814  0.25566463    -0.13100
C963        C  0.86645701  0.04284573  0.23912907    -0.11500
C964        C  0.88621165  0.06390463  0.21896008    -0.13100
C965        C  0.72337055  0.36426797  0.32795694    -0.11500
C966        C  0.71356095  0.32486706  0.33023902    -0.13100
C967        C  0.76810483  0.10223166  0.33246214    -0.11500
C968        C  0.75827409  0.13176367  0.33487540    -0.13100
C969        C  0.50957662  0.07355453  0.33405959    -0.11500
C970        C  0.97172521  0.05472486  0.32752118    -0.13100
C971        C  0.88144624  0.10303301  0.40460156    -0.11500
C972        C  0.90416074  0.12638413  0.42334074    -0.13100
C973        C  0.59364234  0.16775201  0.44260234    -0.11500
C974        C  0.61370188  0.16639845  0.42263640    -0.13100
C975        C  0.84000817  0.41233762  0.38574647    -0.11500
C976        C  0.84051493  0.39263466  0.40610544    -0.13100
C977        C  0.64149856  0.28502351  0.50095128    -0.11500
C978        C  0.68093425  0.29483493  0.49876403    -0.13100
C979        C  0.87343569  0.24902925  0.49429297    -0.11500
C980        C  0.90310311  0.23930950  0.49639501    -0.13100
C981        C  0.93195901  0.49820236  0.49411407    -0.11500
C982        C  0.95090708  0.03615908  0.50043925    -0.13100
C983        C  0.79431743  0.40763722  0.57125729    -0.11500
C984        C  0.79440865  0.43065587  0.58998226    -0.13100
C985        C  0.94340269  0.12027749  0.60905994    -0.11500
C986        C  0.96371718  0.14037108  0.58879360    -0.13100
C987        C  0.96363495  0.36594302  0.57274768    -0.11500
C988        C  0.94290526  0.36559909  0.55266345    -0.13100
C989        C  0.64238230  0.39924065  0.66026809    -0.11500
C990        C  0.68170737  0.42899185  0.66268252    -0.13100
C991        C  0.87455729  0.16765840  0.66803827    -0.11500
C992        C  0.90420347  0.20706716  0.66577022    -0.13100
C993        C  0.95166575  0.45776796  0.66060973    -0.11500
C994        C  0.93228092  0.47634970  0.66671547    -0.13100
C995        C  0.59560305  0.46943414  0.71844928    -0.11500
C996        C  0.61504856  0.49051252  0.73865822    -0.13100
C997        C  0.88748616  0.36511431  0.94258754    -0.11500
C998        C  0.86729182  0.36592384  0.92253680    -0.13100
C999        C  0.75937743  0.16830418  0.82675998    -0.11500
C1000       C  0.76934380  0.20773941  0.82911321    -0.13100
C1001       C  0.97217101  0.45958903  0.83448579    -0.11500
C1002       C  0.50985736  0.47830387  0.82783547    -0.13100
C1003       C  0.72343254  0.40040942  0.83337394    -0.11500
C1004       C  0.71337316  0.42985917  0.83106194    -0.13100
C1005       C  0.90653576  0.32180263  0.73847868    -0.11500
C1006       C  0.88359930  0.32202065  0.75721333    -0.13100
C1007       C  0.84036673  0.46974005  0.77598413    -0.11500
C1008       C  0.84095488  0.48986062  0.75552777    -0.13100
O1009       O  0.83240337  0.88208724  0.88601665    -0.80100
C1010       C  0.85968396  0.82501849  0.78076085     0.99300
O1011       O  0.86884233  0.81628547  0.80385332    -0.69200
O1012       O  0.91623533  0.88767944  0.83068908    -0.72800
Al1013     Al  0.86448119  0.83533999  0.83947725     1.49000
C1014       C  0.92883227  0.92576810  0.84005376     0.94500
O1015       O  0.85479258  0.94627625  0.81831485    -0.79000
O1016       O  0.74374625  0.84284785  0.82518437    -0.72600
Al1017     Al  0.84252079  0.91059081  0.85077755     1.90100
O1018       O  0.80723933  0.89583766  0.78958120    -0.71600
O1019       O  0.76963917  0.77511926  0.81493055    -0.71500
O1020       O  0.83171852  0.83786063  0.77841644    -0.77100
O1021       O  0.81536437  0.77869107  0.84770607    -0.75300
O1022       O  0.83142806  0.86094614  0.83196280    -1.11500
O1023       O  0.87088645  0.84886485  0.87743936    -0.70700
C1024       C  0.85493778  0.86471730  0.89421001     1.00100
C1025       C  0.83417455  0.93593873  0.79570610     0.96400
Al1026     Al  0.79113597  0.83912282  0.80489700     1.55600
O1027       O  0.90414528  0.93452062  0.85417722    -0.75300
C1028       C  0.78409734  0.75583229  0.83116446     1.00600
C1029       C  0.75001056  0.87825734  0.83754736     0.95500
O1030       O  0.78488120  0.90125023  0.85091462    -0.80600
O1031       O  0.51501340  0.88169245  0.60901644    -0.80100
C1032       C  0.93263020  0.82437969  0.71472202     0.99300
O1033       O  0.91409435  0.81530780  0.69179446    -0.69200
O1034       O  0.93719186  0.88666864  0.66517057    -0.72800
Al1035     Al  0.93661378  0.83450990  0.65596689     1.49000
C1036       C  0.96211551  0.92464637  0.65546694     0.94500
O1037       O  0.55671130  0.94553540  0.67666460    -0.79000
O1038       O  0.56471765  0.84176018  0.66844101    -0.72600
Al1039     Al  0.53353162  0.91015542  0.64421254     1.90100
O1040       O  0.55619142  0.89545080  0.70471348    -0.71600
O1041       O  0.97142459  0.77428332  0.67985301    -0.71500
O1042       O  0.97354568  0.83732912  0.71668020    -0.77100
O1043       O  0.92905383  0.77805771  0.64734249    -0.75300
O1044       O  0.99536690  0.86020834  0.66303839    -1.11500
O1045       O  0.94320912  0.84832023  0.61793570    -0.70700
C1046       C  0.97491438  0.86430309  0.60102782     1.00100
C1047       C  0.56826000  0.93544699  0.69887327     0.96400
Al1048     Al  0.51468316  0.83848256  0.68963383     1.55600
O1049       O  0.99532176  0.93350693  0.64105503    -0.75300
C1050       C  0.93748684  0.75508939  0.66372977     1.00600
C1051       C  0.59381766  0.87751165  0.65635835     0.95500
O1052       O  0.58207264  0.90135888  0.64391145    -0.80600
O1053       O  0.85702801  0.54052112  0.71877207    -0.80100
C1054       C  0.79800342  0.95741217  0.61371531     0.99300
O1055       O  0.78917739  0.93902569  0.63668674    -0.69200
O1056       O  0.86095004  0.96174168  0.66285338    -0.72800
Al1057     Al  0.80906143  0.96168384  0.67239441     1.49000
C1058       C  0.89909859  0.98661833  0.67237633     0.94500
O1059       O  0.92008947  0.58036705  0.65063179    -0.79000
O1060       O  0.81659262  0.58964628  0.65986802    -0.72600
Al1061     Al  0.88520275  0.55815740  0.68342781     1.90100
O1062       O  0.86959187  0.58064718  0.62327702    -0.71600
O1063       O  0.74886337  0.49645538  0.64858766    -0.71500
O1064       O  0.81129130  0.49818302  0.61162768    -0.77100
O1065       O  0.75290987  0.95469034  0.68130043    -0.75300
O1066       O  0.83492441  0.52019043  0.66505250    -1.11500
O1067       O  0.82347168  0.96868938  0.71043293    -0.70700
C1068       C  0.83957259  0.50065167  0.72711659     1.00100
C1069       C  0.90964608  0.59231684  0.62868118     0.96400
Al1070     Al  0.81281359  0.53936778  0.63860143     1.55600
O1071       O  0.90807917  0.51962939  0.68689778    -0.75300
C1072       C  0.72985549  0.96283316  0.66479921     1.00600
C1073       C  0.85279216  0.61880621  0.67155973     0.95500
O1074       O  0.87717758  0.60711237  0.68337651    -0.80600
O1075       O  0.85634862  0.85827581  0.44300270    -0.80100
C1076       C  0.79768215  0.88438602  0.54771440     0.99300
O1077       O  0.78909818  0.89380726  0.52464296    -0.69200
O1078       O  0.86077715  0.94190579  0.49823660    -0.72800
Al1079     Al  0.80868475  0.89011270  0.48905140     1.49000
C1080       C  0.89890447  0.95481739  0.48881742     0.94500
O1081       O  0.91951081  0.88165960  0.51100202    -0.79000
O1082       O  0.81580806  0.76941320  0.50259787    -0.72600
Al1083     Al  0.88448466  0.86895744  0.47829380     1.90100
O1084       O  0.86887382  0.83205693  0.53884059    -0.71600
O1085       O  0.74817795  0.79519620  0.51322579    -0.71500
O1086       O  0.81065302  0.85651932  0.55002764    -0.77100
O1087       O  0.75224104  0.84102450  0.48042776    -0.75300
O1088       O  0.83434379  0.85722620  0.49667693    -1.11500
O1089       O  0.82290001  0.89675365  0.45107350    -0.70700
C1090       C  0.83899753  0.88066267  0.43452894     1.00100
C1091       C  0.90902200  0.85982770  0.53316436     0.96400
Al1092     Al  0.81211910  0.81637743  0.52338727     1.55600
O1093       O  0.90784883  0.93037463  0.47462554    -0.75300
C1094       C  0.72911656  0.80976689  0.49689765     1.00600
C1095       C  0.85172507  0.77610900  0.49070020     0.95500
O1096       O  0.87590779  0.81184604  0.47848954    -0.80600
O1097       O  0.51440452  0.67570040  0.55212798    -0.80100
C1098       C  0.93043558  0.65006532  0.44701010     0.99300
O1099       O  0.91217531  0.64044192  0.47001854    -0.69200
O1100       O  0.93557930  0.59229084  0.49640117    -0.72800
Al1101     Al  0.93517062  0.64393528  0.50571604     1.49000
C1102       C  0.96070637  0.57938253  0.50592136     0.94500
O1103       O  0.55437015  0.65239113  0.48423687    -0.79000
O1104       O  0.56354846  0.76482867  0.49265453    -0.72600
Al1105     Al  0.53210929  0.66514716  0.51686305     1.90100
O1106       O  0.55390113  0.70216149  0.45631463    -0.71600
O1107       O  0.97014052  0.73925617  0.48196852    -0.71500
O1108       O  0.97129378  0.67818201  0.44488887    -0.77100
O1109       O  0.92777559  0.69286368  0.51443004    -0.75300
O1110       O  0.99384566  0.67697606  0.49834145    -1.11500
O1111       O  0.94239245  0.63698250  0.54373245    -0.70700
C1112       C  0.97442993  0.65291462  0.56042305     1.00100
C1113       C  0.56586980  0.67411376  0.46205090     0.96400
Al1114     Al  0.51286156  0.71800130  0.47173318     1.55600
O1115       O  0.99377079  0.60369124  0.52042112    -0.75300
C1116       C  0.93628928  0.72445154  0.49817691     1.00600
C1117       C  0.59270607  0.75805032  0.50453586     0.95500
O1118       O  0.58095850  0.72225383  0.51671778    -0.80600
O1119       O  0.83226861  0.99154505  0.27572610    -0.80100
C1120       C  0.85819953  0.57598937  0.38097456     0.99300
O1121       O  0.86788603  0.59379687  0.35786111    -0.69200
O1122       O  0.91563873  0.57025014  0.33112909    -0.72800
Al1123     Al  0.86375038  0.57048935  0.32225166     1.49000
C1124       C  0.92840851  0.54486146  0.32185964     0.94500
O1125       O  0.85465731  0.95034855  0.34359628    -0.79000
O1126       O  0.74330280  0.94195480  0.33628249    -0.72600
Al1127     Al  0.84236980  0.97342047  0.31106064     1.90100
O1128       O  0.80659432  0.95270893  0.37213698    -0.71600
O1129       O  0.76850058  0.53521123  0.34652017    -0.71500
O1130       O  0.83028542  0.53513236  0.38330554    -0.77100
O1131       O  0.81452357  0.57772724  0.31395439    -0.75300
O1132       O  0.83086875  0.51182281  0.32976981    -1.11500
O1133       O  0.87022016  0.56337300  0.28427302    -0.70700
C1134       C  0.85447397  0.53154521  0.26750156     1.00100
C1135       C  0.83378436  0.93984484  0.36610399     0.96400
Al1136     Al  0.79031092  0.99309615  0.35671002     1.55600
O1137       O  0.90389696  0.51137325  0.30772827    -0.75300
C1138       C  0.78304753  0.56905482  0.33036928     1.00600
C1139       C  0.74983703  0.91297066  0.32398341     0.95500
O1140       O  0.78495661  0.92494810  0.31090680    -0.80600
O1141       O  0.64831871  0.64936046  0.38631354    -0.80100
C1142       C  0.62394228  0.70809324  0.28089492     0.99300
O1143       O  0.61394922  0.71628910  0.30389217    -0.69200
O1144       O  0.56583236  0.64491933  0.33042297    -0.72800
Al1145     Al  0.61753520  0.69705690  0.33957164     1.49000
C1146       C  0.55285428  0.60673098  0.33971546     0.94500
O1147       O  0.62686428  0.58625557  0.31826716    -0.79000
O1148       O  0.73833115  0.68948953  0.32662389    -0.72600
Al1149     Al  0.63872107  0.62134309  0.35094206     1.90100
O1150       O  0.67584000  0.63696756  0.29021295    -0.71600
O1151       O  0.71322207  0.75747460  0.31601482    -0.71500
O1152       O  0.65214436  0.69551168  0.27881525    -0.77100
O1153       O  0.66649248  0.75357589  0.34817198    -0.75300
O1154       O  0.65058993  0.67140441  0.33233482    -1.11500
O1155       O  0.61055974  0.68329137  0.37748071    -0.70700
C1156       C  0.62607411  0.66714744  0.39435169     1.00100
C1157       C  0.64826154  0.59683169  0.29593274     0.96400
Al1158     Al  0.69174963  0.69359269  0.30574182     1.55600
O1159       O  0.57715070  0.59768117  0.35398699    -0.75300
C1160       C  0.69834788  0.77660341  0.33205271     1.00600
C1161       C  0.73154553  0.65374230  0.33873315     0.95500
O1162       O  0.69608139  0.63021587  0.35141357    -0.80600
O1163       O  0.96759826  0.65178211  0.10926639    -0.80100
C1164       C  0.55106209  0.70858949  0.21483899     0.99300
O1165       O  0.56912613  0.71736429  0.19178846    -0.69200
O1166       O  0.54512992  0.64605625  0.16488642    -0.72800
Al1167     Al  0.54596344  0.69845779  0.15608932     1.49000
C1168       C  0.51959853  0.60794576  0.15554187     0.94500
O1169       O  0.92456669  0.58794696  0.17691894    -0.79000
O1170       O  0.91821156  0.69179651  0.17002578    -0.72600
Al1171     Al  0.94868459  0.62355342  0.14456992     1.90100
O1172       O  0.92764611  0.63826215  0.20577089    -0.71600
O1173       O  0.01196104  0.75910510  0.18058542    -0.71500
O1174       O  0.51024602  0.69585641  0.21709852    -0.77100
O1175       O  0.55381524  0.75515300  0.14781575    -0.75300
O1176       O  0.98732943  0.67308723  0.16347895    -1.11500
O1177       O  0.53919368  0.68503800  0.11808483    -0.70700
C1178       C  0.00758898  0.66910586  0.10119837     1.00100
C1179       C  0.91420896  0.59814547  0.19951602     0.96400
Al1180     Al  0.96888533  0.69505465  0.19050897     1.55600
O1181       O  0.98596454  0.59908624  0.14161929    -0.75300
C1182       C  0.54565381  0.77816670  0.16433950     1.00600
C1183       C  0.88913651  0.65665292  0.15739871     0.95500
O1184       O  0.90094689  0.63363170  0.14405279    -0.80600
O1185       O  0.62514174  0.99241751  0.21885665    -0.80100
C1186       C  0.68458621  0.57664590  0.11392352     0.99300
O1187       O  0.69286379  0.59476377  0.13696310    -0.69200
O1188       O  0.62090451  0.57127629  0.16311000    -0.72800
Al1189     Al  0.67304648  0.57172661  0.17258286     1.49000
C1190       C  0.58272350  0.54608382  0.17249711     0.94500
O1191       O  0.56246617  0.95224364  0.15061137    -0.79000
O1192       O  0.66619706  0.94379852  0.15966486    -0.72600
Al1193     Al  0.59719840  0.97469890  0.18344557     1.90100
O1194       O  0.61332766  0.95308067  0.12308049    -0.71600
O1195       O  0.73392816  0.53740432  0.14888662    -0.71500
O1196       O  0.67166528  0.53578135  0.11174254    -0.77100
O1197       O  0.72945945  0.57925497  0.18146614    -0.75300
O1198       O  0.64756603  0.51313592  0.16511894    -1.11500
O1199       O  0.65862015  0.56437051  0.21056965    -0.70700
C1200       C  0.64259868  0.53229282  0.22721671     1.00100
C1201       C  0.57316224  0.94090481  0.12851865     0.96400
Al1202     Al  0.66993202  0.99434114  0.13862899     1.55600
O1203       O  0.57384498  0.51285534  0.18686175    -0.75300
C1204       C  0.75278475  0.57116419  0.16515418     1.00600
C1205       C  0.63022975  0.91459030  0.17155599     0.95500
O1206       O  0.60583402  0.92616768  0.18345983    -0.80600
O1207       O  0.62661069  0.67535195  0.94288540    -0.80100
C1208       C  0.68529925  0.64988832  0.04787101     0.99300
O1209       O  0.69354205  0.64006259  0.02482403    -0.69200
O1210       O  0.62214016  0.59194254  0.99821741    -0.72800
Al1211     Al  0.67421518  0.64380328  0.98916944     1.49000
C1212       C  0.58412557  0.57895008  0.98860069     0.94500
O1213       O  0.56338847  0.65240957  0.01100607    -0.79000
O1214       O  0.66676349  0.76462697  0.00248904    -0.72600
Al1215     Al  0.59843984  0.66491179  0.97824667     1.90100
O1216       O  0.61401011  0.70197282  0.03887840    -0.71600
O1217       O  0.73472266  0.73917223  0.01302660    -0.71500
O1218       O  0.67266372  0.67803090  0.05009102    -0.77100
O1219       O  0.73059895  0.69278714  0.98058466    -0.75300
O1220       O  0.64855171  0.67674375  0.99669259    -1.11500
O1221       O  0.66028391  0.63716262  0.95115840    -0.70700
C1222       C  0.64415836  0.65306275  0.93450588     1.00100
C1223       C  0.57384835  0.67419601  0.03320479     0.96400
Al1224     Al  0.67079419  0.71782493  0.02332191     1.55600
O1225       O  0.57506762  0.60353027  0.97465919    -0.75300
C1226       C  0.75372786  0.72436663  0.99682373     1.00600
C1227       C  0.63090712  0.75776645  0.99043198     0.95500
O1228       O  0.60691912  0.72195107  0.97826838    -0.80600
O1229       O  0.96850482  0.85827809  0.05179907    -0.80100
C1230       C  0.55161088  0.88370308  0.94653483     0.99300
O1231       O  0.57004206  0.89204752  0.96950521    -0.69200
O1232       O  0.54711268  0.94086427  0.99581408    -0.72800
Al1233     Al  0.54706743  0.88908460  0.00526027     1.49000
C1234       C  0.52200908  0.95394706  0.00517097     0.94500
O1235       O  0.92735577  0.88076188  0.98407054    -0.79000
O1236       O  0.91899846  0.76885272  0.99201244    -0.72600
Al1237     Al  0.95040201  0.86841095  0.01653894     1.90100
O1238       O  0.92800068  0.83135337  0.95598071    -0.71600
O1239       O  0.01243916  0.79471261  0.98086081    -0.71500
O1240       O  0.51054826  0.85640512  0.94440367    -0.77100
O1241       O  0.55359526  0.83970609  0.01417342    -0.75300
O1242       O  0.98837503  0.85647575  0.99789297    -1.11500
O1243       O  0.54024864  0.89663058  0.04324782    -0.70700
C1244       C  0.50835861  0.88086161  0.06002351     1.00100
C1245       C  0.91572662  0.85906920  0.96188351     0.96400
Al1246     Al  0.96937876  0.81583331  0.97108098     1.55600
O1247       O  0.98885826  0.92988361  0.01962773    -0.75300
C1248       C  0.54577901  0.80888557  0.99744311     1.00600
C1249       C  0.89000313  0.77554380  0.00422004     0.95500
O1250       O  0.90185593  0.81110563  0.01675114    -0.80600
O1251       O  0.64871026  0.54164072  0.77534155    -0.80100
C1252       C  0.62377177  0.95740025  0.88032860     0.99300
O1253       O  0.61379687  0.93933267  0.85727485    -0.69200
O1254       O  0.56600560  0.96287955  0.83068734    -0.72800
Al1255     Al  0.61773862  0.96246126  0.82160742     1.49000
C1256       C  0.55319961  0.98839621  0.82172188     0.94500
O1257       O  0.62721783  0.58242905  0.84368123    -0.79000
O1258       O  0.73873222  0.59029785  0.83485675    -0.72600
Al1259     Al  0.63904585  0.55955040  0.81083997     1.90100
O1260       O  0.67654018  0.58074155  0.87139575    -0.71600
O1261       O  0.71299439  0.49691507  0.84545636    -0.71500
O1262       O  0.65198771  0.49809462  0.88254167    -0.77100
O1263       O  0.66665561  0.95464589  0.81306794    -0.75300
O1264       O  0.65076476  0.52100946  0.82915134    -1.11500
O1265       O  0.61126522  0.96987070  0.78367293    -0.70700
C1266       C  0.62677555  0.50171303  0.76704401     1.00100
C1267       C  0.64900205  0.59340678  0.86587117     0.96400
Al1268     Al  0.69190578  0.53965682  0.85574220     1.55600
O1269       O  0.57745151  0.52178856  0.80767868    -0.75300
C1270       C  0.69829241  0.96313260  0.82930849     1.00600
C1271       C  0.73212100  0.61953356  0.82294714     0.95500
O1272       O  0.69646603  0.60793912  0.81059132    -0.80600
C1273       C  0.57811533  0.90757842  0.92290555    -0.11500
C1274       C  0.60071378  0.93069259  0.90406294    -0.13100
C1275       C  0.64284144  0.64089052  0.90610498    -0.11500
C1276       C  0.64331548  0.62112073  0.88573060    -0.13100
C1277       C  0.60917154  0.78476247  0.99374790    -0.11500
C1278       C  0.57935878  0.79433072  0.99563901    -0.13100
C1279       C  0.80192828  0.73921112  0.99852793    -0.11500
C1280       C  0.84129430  0.74878907  0.00056970    -0.13100
C1281       C  0.53221609  0.99723069  0.99943526    -0.11500
C1282       C  0.55116360  0.53524745  0.99347066    -0.13100
C1283       C  0.68830286  0.60339844  0.09024490    -0.11500
C1284       C  0.68856637  0.62651623  0.07151646    -0.13100
C1285       C  0.53966526  0.91331418  0.10868301    -0.11500
C1286       C  0.51937385  0.89346291  0.08834444    -0.13100
C1287       C  0.51911146  0.66778495  0.07290236    -0.11500
C1288       C  0.54000899  0.66835447  0.05281443    -0.13100
C1289       C  0.84040462  0.63454330  0.16128939    -0.11500
C1290       C  0.80099208  0.60477417  0.16342323    -0.13100
C1291       C  0.57918719  0.82636958  0.16622681    -0.11500
C1292       C  0.60883163  0.86584486  0.16823792    -0.13100
C1293       C  0.54938516  0.55615583  0.16689121    -0.11500
C1294       C  0.52999552  0.57475239  0.16074764    -0.13100
C1295       C  0.60075857  0.71147079  0.25715159    -0.11500
C1296       C  0.57778434  0.71159215  0.23842489    -0.13100
C1297       C  0.64204438  0.56324935  0.27608496    -0.11500
C1298       C  0.64130604  0.54304485  0.25563682    -0.13100
C1299       C  0.86656529  0.54292324  0.23914267    -0.11500
C1300       C  0.88637001  0.56402444  0.21899719    -0.13100
C1301       C  0.72332569  0.86427412  0.32795461    -0.11500
C1302       C  0.71350317  0.82486854  0.33022898    -0.13100
C1303       C  0.76799982  0.60218626  0.33241679    -0.11500
C1304       C  0.75817052  0.63172006  0.33483123    -0.13100
C1305       C  0.50950183  0.57355067  0.33398884    -0.11500
C1306       C  0.97172933  0.55488483  0.32749791    -0.13100
C1307       C  0.88127428  0.60309429  0.40457706    -0.11500
C1308       C  0.90397020  0.62645176  0.42331576    -0.13100
C1309       C  0.59353904  0.66771734  0.44256098    -0.11500
C1310       C  0.61359841  0.66636906  0.42259464    -0.13100
C1311       C  0.84001575  0.91232680  0.38575059    -0.11500
C1312       C  0.84052430  0.89267447  0.40613167    -0.13100
C1313       C  0.64144525  0.78512083  0.50091221    -0.11500
C1314       C  0.68089859  0.79498121  0.49874145    -0.13100
C1315       C  0.87331519  0.74905958  0.49434267    -0.11500
C1316       C  0.90297055  0.73932094  0.49643614    -0.13100
C1317       C  0.93209252  0.99825568  0.49421324    -0.11500
C1318       C  0.95072512  0.53610990  0.50032540    -0.13100
C1319       C  0.79432550  0.90781845  0.57127192    -0.11500
C1320       C  0.79443667  0.93085006  0.58999459    -0.13100
C1321       C  0.94329540  0.62012165  0.60899795    -0.11500
C1322       C  0.96360195  0.64024130  0.58873650    -0.13100
C1323       C  0.96351510  0.86587374  0.57279948    -0.11500
C1324       C  0.94279995  0.86556148  0.55271753    -0.13100
C1325       C  0.64247361  0.89939725  0.66022669    -0.11500
C1326       C  0.68178604  0.92916362  0.66266386    -0.13100
C1327       C  0.87441404  0.66750051  0.66798240    -0.11500
C1328       C  0.90404935  0.70691467  0.66572938    -0.13100
C1329       C  0.95154538  0.95765938  0.66070079    -0.11500
C1330       C  0.93222520  0.97631739  0.66678131    -0.13100
C1331       C  0.59575871  0.96954929  0.71840904    -0.11500
C1332       C  0.61521417  0.99064309  0.73861251    -0.13100
C1333       C  0.88761804  0.86507452  0.94253577    -0.11500
C1334       C  0.86736753  0.86586924  0.92250838    -0.13100
C1335       C  0.75920846  0.66820146  0.82676518    -0.11500
C1336       C  0.76915721  0.70763120  0.82912187    -0.13100
C1337       C  0.97215604  0.95923441  0.83447312    -0.11500
C1338       C  0.50996106  0.97841236  0.82771014    -0.13100
C1339       C  0.72347809  0.90046480  0.83340933    -0.11500
C1340       C  0.71343474  0.92992579  0.83108809    -0.13100
C1341       C  0.90631656  0.82155510  0.73849623    -0.11500
C1342       C  0.88336868  0.82177891  0.75721963    -0.13100
C1343       C  0.84044784  0.96971356  0.77599137    -0.11500
C1344       C  0.84103120  0.98986365  0.75554853    -0.13100
loop_ 
_geom_bond_atom_site_label_1 
_geom_bond_atom_site_label_2 
_geom_bond_distance 
_geom_bond_site_symmetry_2 
_ccdc_geom_bond_type 
O1           C16   1.265       .  A
O1           Al9   1.926       .  S
C2           O12   1.257       .  A
C2            O3   1.248       .  A
C2          C334   1.448       .  S
O3           Al5   1.892       .  S
O4            C6   1.250       .  A
O4           Al5   1.852       .  S
Al5          O13   1.887       .  S
Al5          O15   1.896       .  S
Al5          O14   1.802       .  S
C6           O19   1.248       .  A
C6          C329   1.388       .  S
O7           C17   1.264       .  A
O7           Al9   1.921       .  S
O8           C21   1.284       .  A
O8          Al18   1.975       .  S
Al9          O22   1.855       .  S
Al9          O19   1.870       .  S
Al9          O14   1.813       .  S
O10          C17   1.262       .  A
O10         Al18   1.906       .  S
O11          C20   1.288       .  A
O11         Al18   2.014       .  S
O12         Al18   1.925       .  S
O13          C20   1.262       .  A
O14         Al18   1.791       .  S
O15          C16   1.257       .  A
C16         C326   1.441       .  S
C17         C335   1.445       .  S
C20         C328   1.484       .  S
C21          O22   1.247       .  A
C21         C331   1.478       .  S
O23         C710   1.266   1_455  A
O23         Al31   1.923       .  S
C24          O34   1.257       .  A
C24          O25   1.249       .  A
C24         C333   1.448       .  S
O25         Al27   1.894       .  S
O26          C28   1.250       .  A
O26         Al27   1.852       .  S
Al27         O35   1.886       .  S
Al27         O37   1.902       .  S
Al27         O36   1.799       .  S
C28          O41   1.248       .  A
C28         C321   1.388       .  S
O29          C39   1.264       .  A
O29         Al31   1.915       .  S
O30          C43   1.283       .  A
O30         Al40   1.972       .  S
Al31         O44   1.852       .  S
Al31        O713   1.871   1_455  S
Al31        O708   1.811   1_455  S
O32          C39   1.263       .  A
O32         Al40   1.913       .  S
O33          C42   1.288       .  A
O33        Al712   2.016       .  S
O34        Al712   1.924       .  S
O35          C42   1.261       .  A
O36        Al703   1.811       .  S
O36        Al712   1.790       .  S
O37          C38   1.258       .  A
C38         O695   1.266       .  A
C38         C315   1.441       .  S
C39         C323   1.444       .  S
Al40        O705   2.016   1_455  S
Al40        O706   1.924   1_455  S
Al40        O708   1.790   1_455  S
O41        Al703   1.871       .  S
C42         C320   1.483       .  S
C43          O44   1.246       .  A
C43         C317   1.473       .  S
O45          C60   1.266       .  A
O45         Al53   1.924       .  S
C46          O47   1.249       .  A
C46         O392   1.257       .  A
C46         C312   1.445       .  S
O47         Al49   1.893       .  S
O48          C50   1.250       .  A
O48         Al49   1.855       .  S
Al49         O57   1.886       .  S
Al49         O59   1.906       .  S
Al49        O394   1.799       .  S
C50         O399   1.247       .  A
C50         C322   1.388       .  S
O51          C61   1.265       .  A
O51         Al53   1.919       .  S
O52          C65   1.284       .  A
O52         Al62   1.975       .  S
Al53         O66   1.851       .  S
Al53         O63   1.870       .  S
Al53         O58   1.809       .  S
O54          C61   1.263       .  A
O54         Al62   1.911       .  S
O55         C400   1.288       .  A
O55         Al62   2.013   1_565  S
O56         C382   1.257       .  A
O56         Al62   1.922   1_565  S
O57          C64   1.261       .  A
O58         Al62   1.790       .  S
O58        Al385   1.799   1_545  S
O59         C396   1.260       .  A
C60         O395   1.260   1_545  A
C60         C672   1.443   1_545  S
C61         C313   1.443       .  S
O63         C386   1.247   1_545  A
C64         O391   1.288       .  A
C64         C318   1.482       .  S
C65          O66   1.246       .  A
C65         C319   1.474       .  S
O67          C82   1.265       .  A
O67         Al75   1.921       .  S
C68          O78   1.257       .  A
C68          O69   1.249       .  A
C68         C311   1.445       .  S
O69         Al71   1.892       .  S
O70          C72   1.250       .  A
O70         Al71   1.853       .  S
Al71         O79   1.887       .  S
Al71         O81   1.901       .  S
Al71         O80   1.800       .  S
C72          O85   1.247       .  A
C72         C309   1.386       .  S
O73          C83   1.264       .  A
O73         Al75   1.918       .  S
O74          C87   1.284       .  A
O74         Al84   1.975       .  S
Al75         O88   1.848       .  S
Al75         O85   1.868       .  S
Al75         O80   1.810       .  S
O76          C83   1.263       .  A
O76         Al84   1.912       .  S
O77          C86   1.288       .  A
O77         Al84   2.015       .  S
O78         Al84   1.923       .  S
O79          C86   1.261       .  A
O80         Al84   1.790       .  S
O81          C82   1.259       .  A
C82         C304   1.440       .  S
C83         C316   1.444       .  S
C86         C306   1.484       .  S
C87          O88   1.245       .  A
C87         C307   1.473       .  S
O89         C776   1.266   1_455  A
O89         Al97   1.922       .  S
C90         O100   1.257       .  A
C90          O91   1.249       .  A
C90         C300   1.447       .  S
O91         Al93   1.894       .  S
O92          C94   1.250       .  A
O92         Al93   1.853       .  S
Al93        O101   1.885       .  S
Al93        O103   1.903       .  S
Al93        O102   1.800       .  S
C94         O107   1.247       .  A
C94         C310   1.387       .  S
O95         C105   1.264       .  A
O95         Al97   1.915       .  S
O96         C109   1.284       .  A
O96        Al106   1.975       .  S
Al97        O110   1.850       .  S
Al97        O779   1.868   1_455  S
Al97        O774   1.810   1_455  S
O98         C105   1.264       .  A
O98        Al106   1.915       .  S
O99         C108   1.289       .  A
O99        Al778   2.016       .  S
O100       Al778   1.924       .  S
O101        C108   1.261       .  A
O102       Al769   1.810       .  S
O102       Al778   1.790       .  S
O103        C104   1.259       .  A
C104        O761   1.266       .  A
C104        C314   1.441       .  S
C105        C301   1.444       .  S
Al106       O771   2.016   1_455  S
Al106       O772   1.924   1_455  S
Al106       O774   1.790   1_455  S
O107       Al769   1.868       .  S
C108        C308   1.483       .  S
C109        O110   1.246       .  A
C109        C305   1.474       .  S
O111        C462   1.266       .  A
O111       Al119   1.926       .  S
C112        O122   1.257       .  A
C112        O113   1.248       .  A
C112        C299   1.447       .  S
O113       Al115   1.891       .  S
O114        C116   1.250       .  A
O114       Al115   1.852       .  S
Al115       O123   1.887       .  S
Al115       O125   1.898       .  S
Al115       O124   1.801       .  S
C116        O129   1.247       .  A
C116        C298   1.387       .  S
O117        C127   1.264       .  A
O117       Al119   1.919       .  S
O118        C131   1.283       .  A
O118       Al128   1.973       .  S
Al119       O132   1.852       .  S
Al119       O465   1.868       .  S
Al119       O460   1.813       .  S
O120        C127   1.262       .  A
O120       Al128   1.906       .  S
O121        C130   1.288       .  A
O121       Al464   2.011   1_545  S
O122       Al464   1.925   1_545  S
O123        C130   1.262       .  A
O124       Al455   1.813   1_545  S
O124       Al464   1.792   1_545  S
O125        C126   1.257       .  A
C126        O447   1.266   1_545  A
C126        C291   1.442       .  S
C127        C303   1.443       .  S
Al128       O457   2.011       .  S
Al128       O458   1.925       .  S
Al128       O460   1.792       .  S
O129       Al455   1.868   1_545  S
C130        C295   1.482       .  S
C131        O132   1.246       .  A
C131        C293   1.475       .  S
O133        C148   1.266       .  A
O133       Al141   1.926       .  S
C134        O144   1.257       .  A
C134        O135   1.248       .  A
C134        C287   1.447       .  S
O135       Al137   1.891       .  S
O136        C138   1.250       .  A
O136       Al137   1.851       .  S
Al137       O145   1.887       .  S
Al137       O147   1.895       .  S
Al137       O146   1.801       .  S
C138        O151   1.247       .  A
C138        C297   1.387       .  S
O139        C149   1.265       .  A
O139       Al141   1.921       .  S
O140        C153   1.283       .  A
O140       Al150   1.972       .  S
Al141       O154   1.852       .  S
Al141       O151   1.868       .  S
Al141       O146   1.813       .  S
O142        C149   1.262       .  A
O142       Al150   1.909       .  S
O143        C152   1.288       .  A
O143       Al150   2.013       .  S
O144       Al150   1.924       .  S
O145        C152   1.261       .  A
O146       Al150   1.791       .  S
O147        C148   1.257       .  A
C148        C302   1.440       .  S
C149        C289   1.445       .  S
C152        C294   1.483       .  S
C153        O154   1.246       .  A
C153        C296   1.474       .  S
O155        C170   1.265       .  A
O155       Al163   1.926       .  S
C156        O166   1.257       .  A
C156        O157   1.248       .  A
C156        C288   1.448       .  S
O157       Al159   1.892       .  S
O158        C160   1.250       .  A
O158       Al159   1.852       .  S
Al159       O167   1.887       .  S
Al159       O169   1.898       .  S
Al159       O840   1.802   1_455  S
C160        O845   1.248   1_455  A
C160        C286   1.390       .  S
O161        C171   1.263       .  A
O161       Al163   1.918       .  S
O162        C175   1.284       .  A
O162       Al172   1.973       .  S
Al163       O176   1.853       .  S
Al163       O173   1.871       .  S
Al163       O168   1.813       .  S
O164        C171   1.262       .  A
O164       Al172   1.911       .  S
O165        C846   1.289       .  A
O165       Al172   2.017       .  S
O166       Al844   1.924   1_455  S
O167        C174   1.261       .  A
O168       Al172   1.793       .  S
O168       Al831   1.802       .  S
O169        C842   1.257       .  A
C170        O841   1.257       .  A
C170        C951   1.443       .  S
C171        C292   1.445       .  S
Al172       O838   1.925       .  S
O173        C832   1.248       .  A
C174        O837   1.289       .  A
C174        C283   1.484       .  S
C175        O176   1.247       .  A
C175        C281   1.475       .  S
O177        C528   1.266       .  A
O177       Al185   1.925       .  S
C178        O188   1.257       .  A
C178        O179   1.249       .  A
C178        C275   1.446       .  S
O179       Al181   1.892       .  S
O180        C182   1.250       .  A
O180       Al181   1.856       .  S
Al181       O189   1.887       .  S
Al181       O191   1.903       .  S
Al181       O190   1.799       .  S
C182        O195   1.248       .  A
C182        C285   1.390       .  S
O183        C193   1.265       .  A
O183       Al185   1.919       .  S
O184        C197   1.284       .  A
O184       Al194   1.977       .  S
Al185       O198   1.849       .  S
Al185       O531   1.871       .  S
Al185       O526   1.810       .  S
O186        C193   1.263       .  A
O186       Al194   1.912       .  S
O187        C196   1.288       .  A
O187       Al530   2.015   1_545  S
O188       Al530   1.924   1_545  S
O189        C196   1.261       .  A
O190       Al521   1.810   1_545  S
O190       Al530   1.791   1_545  S
O191        C192   1.259       .  A
C192        O513   1.266   1_545  A
C192        C290   1.442       .  S
C193        C277   1.444       .  S
Al194       O523   2.015       .  S
Al194       O524   1.924       .  S
Al194       O526   1.791       .  S
O195       Al521   1.871   1_545  S
C196        C282   1.484       .  S
C197        O198   1.245       .  A
C197        C284   1.474       .  S
O199        C214   1.266       .  A
O199       Al207   1.925       .  S
C200        O210   1.257       .  A
C200        O201   1.249       .  A
C200        C276   1.446       .  S
O201       Al203   1.892   1_554  S
O202        C204   1.250       .  A
O202       Al203   1.852       .  S
Al203       O211   1.884       .  S
Al203       O213   1.901       .  S
Al203       O212   1.801       .  S
C204        O217   1.247       .  A
C204        C274   1.386       .  S
O205        C215   1.265       .  A
O205       Al207   1.921   1_554  S
O206        C219   1.284   1_554  A
O206       Al216   1.977       .  S
Al207       O220   1.847       .  S
Al207       O217   1.867       .  S
Al207       O212   1.810       .  S
O208        C215   1.263       .  A
O208       Al216   1.914       .  S
O209        C218   1.288   1_554  A
O209       Al216   2.015       .  S
O210       Al216   1.924       .  S
O211        C218   1.260       .  A
O212       Al216   1.791   1_556  S
O213        C214   1.258       .  A
C214        C267   1.443       .  S
C215        C280   1.446       .  S
C218        C271   1.482       .  S
C219        O220   1.245       .  A
C219        C269   1.474       .  S
O221        C908   1.265       .  A
O221       Al229   1.923       .  S
C222        O232   1.257       .  A
C222        O223   1.250       .  A
C222        C265   1.448       .  S
O223       Al225   1.899   1_556  S
O224        C226   1.251   1_556  A
O224       Al225   1.851   1_556  S
Al225       O233   1.885       .  S
Al225       O235   1.903       .  S
Al225       O906   1.799   1_454  S
C226        O911   1.248   1_455  A
C226        C273   1.386   1_554  S
O227        C237   1.263       .  A
O227       Al229   1.916   1_556  S
O228        C241   1.284   1_556  A
O228       Al238   1.973       .  S
Al229       O242   1.851       .  S
Al229       O239   1.868       .  S
Al229       O234   1.809   1_554  S
O230        C237   1.263       .  A
O230       Al238   1.912       .  S
O231        C912   1.289       .  A
O231       Al238   2.020       .  S
O232       Al910   1.923   1_455  S
O233        C240   1.261   1_554  A
O234       Al238   1.789       .  S
O234       Al897   1.799   1_556  S
O235        C236   1.258       .  A
C236        O893   1.265   1_455  A
C236        C278   1.442       .  S
C237        C325   1.444       .  S
Al238       O904   1.923       .  S
O239        C898   1.248       .  A
C240        O903   1.289       .  A
C240        C270   1.484       .  S
C241        O242   1.247       .  A
C241        C272   1.473       .  S
O243        C258   1.266       .  A
O243       Al251   1.925       .  S
C244        O245   1.249       .  A
C244        O590   1.257       .  A
C244        C266   1.447       .  S
O245       Al247   1.892       .  S
O246        C248   1.250       .  A
O246       Al247   1.852       .  S
Al247       O255   1.891       .  S
Al247       O257   1.897       .  S
Al247       O592   1.802       .  S
C248        O597   1.247       .  A
C248        C330   1.389       .  S
O249        C259   1.264       .  A
O249       Al251   1.921       .  S
O250        C263   1.284       .  A
O250       Al260   1.974       .  S
Al251       O264   1.851       .  S
Al251       O261   1.868       .  S
Al251       O256   1.813       .  S
O252        C259   1.262       .  A
O252       Al260   1.911       .  S
O253        C598   1.288       .  A
O253       Al260   2.015   1_565  S
O254        C580   1.257       .  A
O254       Al260   1.924   1_565  S
O255        C262   1.262       .  A
O256       Al260   1.791       .  S
O256       Al583   1.802   1_545  S
O257        C594   1.258       .  A
C258        O593   1.258   1_545  A
C258        C660   1.441   1_545  S
C259        C268   1.445       .  S
O261        C584   1.247   1_545  A
C262        O589   1.288       .  A
C262        C332   1.487       .  S
C263        O264   1.246       .  A
C263        C327   1.474       .  S
C265        C266   1.213       .  T
C267        C268   1.212       .  T
C269        C270   1.236       .  T
C271        C272   1.235   1_556  T
C273        C610   1.176       .  T
C274        C609   1.176   1_545  T
C275        C276   1.212       .  T
C277        C278   1.211       .  T
C279        C842   1.443       .  S
C279        C280   1.213       .  T
C281        C282   1.236       .  T
C283        C284   1.236       .  T
C285        C286   1.179       .  T
C287        C288   1.213       .  T
C289        C290   1.212       .  T
C291        C292   1.212       .  T
C293        C294   1.236       .  T
C295        C296   1.235       .  T
C297        C970   1.177   1_455  T
C298        C969   1.177       .  T
C299        C300   1.213       .  T
C301        C302   1.211       .  T
C303        C304   1.210       .  T
C305        C306   1.236       .  T
C307        C308   1.235       .  T
C309        C646   1.176       .  T
C310        C645   1.176   1_545  T
C311        C312   1.212       .  T
C313        C314   1.211       .  T
C315        C316   1.211       .  T
C317        C318   1.235       .  T
C319        C320   1.235       .  T
C321        C322   1.177       .  T
C323        C324   1.211       .  T
C324        C594   1.441       .  S
C325        C326   1.211       .  T
C327        C328   1.236       .  T
C329       C1002   1.178       .  T
C330       C1001   1.178   1_455  T
C331        C332   1.237       .  T
C333        C334   1.213       .  T
C335        C336   1.212       .  T
C336        C396   1.443       .  S
O337        C352   1.265       .  A
O337       Al345   1.925       .  S
C338        O348   1.257       .  A
C338        O339   1.248       .  A
C338        C670   1.448       .  S
O339       Al341   1.892       .  S
O340        C342   1.250       .  A
O340       Al341   1.852       .  S
Al341       O349   1.888       .  S
Al341       O351   1.896       .  S
Al341       O350   1.802       .  S
C342        O355   1.248       .  A
C342        C665   1.388       .  S
O343        C353   1.264       .  A
O343       Al345   1.921       .  S
O344        C357   1.284       .  A
O344       Al354   1.975       .  S
Al345       O358   1.855       .  S
Al345       O355   1.870       .  S
Al345       O350   1.813       .  S
O346        C353   1.261       .  A
O346       Al354   1.906       .  S
O347        C356   1.288       .  A
O347       Al354   2.014       .  S
O348       Al354   1.925       .  S
O349        C356   1.262       .  A
O350       Al354   1.791       .  S
O351        C352   1.257       .  A
C352        C662   1.441       .  S
C353        C671   1.445       .  S
C356        C664   1.483       .  S
C357        O358   1.247       .  A
C357        C667   1.478       .  S
O359       C1046   1.265   1_455  A
O359       Al367   1.923       .  S
C360        O370   1.257       .  A
C360        O361   1.249       .  A
C360        C669   1.448       .  S
O361       Al363   1.894       .  S
O362        C364   1.250       .  A
O362       Al363   1.852       .  S
Al363       O371   1.886       .  S
Al363       O373   1.901       .  S
Al363       O372   1.799       .  S
C364        O377   1.248       .  A
C364        C657   1.388       .  S
O365        C375   1.264       .  A
O365       Al367   1.915       .  S
O366        C379   1.283       .  A
O366       Al376   1.972       .  S
Al367       O380   1.852       .  S
Al367      O1049   1.871   1_455  S
Al367      O1044   1.811   1_455  S
O368        C375   1.263       .  A
O368       Al376   1.913       .  S
O369        C378   1.288       .  A
O369      Al1048   2.016       .  S
O370      Al1048   1.924       .  S
O371        C378   1.261       .  A
O372      Al1039   1.811       .  S
O372      Al1048   1.790       .  S
O373        C374   1.258       .  A
C374       O1031   1.266       .  A
C374        C651   1.441       .  S
C375        C659   1.444       .  S
Al376      O1041   2.016   1_455  S
Al376      O1042   1.924   1_455  S
Al376      O1044   1.790   1_455  S
O377      Al1039   1.871       .  S
C378        C656   1.483       .  S
C379        O380   1.246       .  A
C379        C653   1.473       .  S
O381        C396   1.266       .  A
O381       Al389   1.924       .  S
C382        O383   1.249       .  A
C382        C648   1.445       .  S
O383       Al385   1.893       .  S
O384        C386   1.250       .  A
O384       Al385   1.855       .  S
Al385       O393   1.886       .  S
Al385       O395   1.906       .  S
C386        C658   1.388       .  S
O387        C397   1.265       .  A
O387       Al389   1.919       .  S
O388        C401   1.284       .  A
O388       Al398   1.975       .  S
Al389       O402   1.851       .  S
Al389       O399   1.870       .  S
Al389       O394   1.809       .  S
O390        C397   1.263       .  A
O390       Al398   1.911       .  S
O391       Al398   2.013       .  S
O392       Al398   1.922       .  S
O393        C400   1.261       .  A
O394       Al398   1.790       .  S
C397        C649   1.444       .  S
C400        C654   1.482       .  S
C401        O402   1.246       .  A
C401        C655   1.474       .  S
O403        C418   1.265       .  A
O403       Al411   1.921       .  S
C404        O414   1.257       .  A
C404        O405   1.249       .  A
C404        C647   1.445       .  S
O405       Al407   1.892       .  S
O406        C408   1.250       .  A
O406       Al407   1.853       .  S
Al407       O415   1.887       .  S
Al407       O417   1.902       .  S
Al407       O416   1.800       .  S
C408        O421   1.247       .  A
C408        C645   1.386       .  S
O409        C419   1.264       .  A
O409       Al411   1.918       .  S
O410        C423   1.284       .  A
O410       Al420   1.975       .  S
Al411       O424   1.848       .  S
Al411       O421   1.868       .  S
Al411       O416   1.810       .  S
O412        C419   1.263       .  A
O412       Al420   1.912       .  S
O413        C422   1.288       .  A
O413       Al420   2.015       .  S
O414       Al420   1.923       .  S
O415        C422   1.261       .  A
O416       Al420   1.790       .  S
O417        C418   1.259       .  A
C418        C640   1.440       .  S
C419        C652   1.444       .  S
C422        C642   1.484       .  S
C423        O424   1.245       .  A
C423        C643   1.473       .  S
O425       C1112   1.266   1_455  A
O425       Al433   1.922       .  S
C426        O436   1.257       .  A
C426        O427   1.249       .  A
C426        C636   1.448       .  S
O427       Al429   1.894       .  S
O428        C430   1.250       .  A
O428       Al429   1.853       .  S
Al429       O437   1.885       .  S
Al429       O439   1.903       .  S
Al429       O438   1.799       .  S
C430        O443   1.247       .  A
C430        C646   1.387       .  S
O431        C441   1.264       .  A
O431       Al433   1.914       .  S
O432        C445   1.284       .  A
O432       Al442   1.975       .  S
Al433       O446   1.850       .  S
Al433      O1115   1.868   1_455  S
Al433      O1110   1.810   1_455  S
O434        C441   1.264       .  A
O434       Al442   1.915       .  S
O435        C444   1.288       .  A
O435      Al1114   2.016       .  S
O436      Al1114   1.924       .  S
O437        C444   1.261       .  A
O438      Al1105   1.810       .  S
O438      Al1114   1.790       .  S
O439        C440   1.259       .  A
C440       O1097   1.266       .  A
C440        C650   1.441       .  S
C441        C637   1.444       .  S
Al442      O1107   2.016   1_455  S
Al442      O1108   1.924   1_455  S
Al442      O1110   1.790   1_455  S
O443      Al1105   1.868       .  S
C444        C644   1.483       .  S
C445        O446   1.246       .  A
C445        C641   1.474       .  S
O447       Al455   1.926       .  S
C448        O458   1.257       .  A
C448        O449   1.248       .  A
C448        C635   1.448       .  S
O449       Al451   1.891       .  S
O450        C452   1.250       .  A
O450       Al451   1.852       .  S
Al451       O459   1.887       .  S
Al451       O461   1.898       .  S
Al451       O460   1.801       .  S
C452        O465   1.247       .  A
C452        C634   1.387       .  S
O453        C463   1.264       .  A
O453       Al455   1.919       .  S
O454        C467   1.283       .  A
O454       Al464   1.973       .  S
Al455       O468   1.852       .  S
O456        C463   1.262       .  A
O456       Al464   1.906       .  S
O457        C466   1.288       .  A
O459        C466   1.262       .  A
O461        C462   1.257       .  A
C462        C627   1.442       .  S
C463        C639   1.442       .  S
C466        C631   1.483       .  S
C467        O468   1.246       .  A
C467        C629   1.475       .  S
O469        C484   1.266       .  A
O469       Al477   1.926       .  S
C470        O480   1.257       .  A
C470        O471   1.248       .  A
C470        C623   1.447       .  S
O471       Al473   1.890       .  S
O472        C474   1.250       .  A
O472       Al473   1.852       .  S
Al473       O481   1.887       .  S
Al473       O483   1.895       .  S
Al473       O482   1.801       .  S
C474        O487   1.247       .  A
C474        C633   1.387       .  S
O475        C485   1.264       .  A
O475       Al477   1.920       .  S
O476        C489   1.283       .  A
O476       Al486   1.972       .  S
Al477       O490   1.852       .  S
Al477       O487   1.868       .  S
Al477       O482   1.813       .  S
O478        C485   1.262       .  A
O478       Al486   1.909       .  S
O479        C488   1.288       .  A
O479       Al486   2.014       .  S
O480       Al486   1.924       .  S
O481        C488   1.261       .  A
O482       Al486   1.791       .  S
O483        C484   1.257       .  A
C484        C638   1.440       .  S
C485        C625   1.445       .  S
C488        C630   1.483       .  S
C489        O490   1.246       .  A
C489        C632   1.474       .  S
O491        C506   1.265       .  A
O491       Al499   1.927       .  S
C492        O502   1.257       .  A
C492        O493   1.248       .  A
C492        C624   1.447       .  S
O493       Al495   1.892       .  S
O494        C496   1.250       .  A
O494       Al495   1.852       .  S
Al495       O503   1.887       .  S
Al495       O505   1.898       .  S
Al495      O1176   1.802   1_455  S
C496       O1181   1.248   1_455  A
C496        C622   1.390       .  S
O497        C507   1.263       .  A
O497       Al499   1.918       .  S
O498        C511   1.284       .  A
O498       Al508   1.973       .  S
Al499       O512   1.853       .  S
Al499       O509   1.871       .  S
Al499       O504   1.813       .  S
O500        C507   1.262       .  A
O500       Al508   1.911       .  S
O501       C1182   1.289       .  A
O501       Al508   2.017       .  S
O502      Al1180   1.924   1_455  S
O503        C510   1.261       .  A
O504      Al1167   1.802       .  S
O504       Al508   1.793       .  S
O505       C1178   1.257       .  A
C506       O1177   1.257       .  A
C506       C1287   1.443       .  S
C507        C628   1.445       .  S
Al508      O1174   1.924       .  S
O509       C1168   1.248       .  A
C510       O1173   1.289       .  A
C510        C619   1.484       .  S
C511        O512   1.247       .  A
C511        C617   1.475       .  S
O513       Al521   1.924       .  S
C514        O524   1.257       .  A
C514        O515   1.249       .  A
C514        C611   1.446       .  S
O515       Al517   1.892       .  S
O516        C518   1.250       .  A
O516       Al517   1.856       .  S
Al517       O525   1.887       .  S
Al517       O527   1.903       .  S
Al517       O526   1.799       .  S
C518        O531   1.248       .  A
C518        C621   1.390       .  S
O519        C529   1.265       .  A
O519       Al521   1.919       .  S
O520        C533   1.284       .  A
O520       Al530   1.977       .  S
Al521       O534   1.849       .  S
O522        C529   1.263       .  A
O522       Al530   1.912       .  S
O523        C532   1.288       .  A
O525        C532   1.261       .  A
O527        C528   1.259       .  A
C528        C626   1.442       .  S
C529        C613   1.444       .  S
C532        C618   1.484       .  S
C533        O534   1.245       .  A
C533        C620   1.474       .  S
O535        C550   1.266       .  A
O535       Al543   1.925       .  S
C536        O546   1.257       .  A
C536        O537   1.249       .  A
C536        C612   1.446       .  S
O537       Al539   1.891   1_554  S
O538        C540   1.250       .  A
O538       Al539   1.852       .  S
Al539       O547   1.884       .  S
Al539       O549   1.901       .  S
Al539       O548   1.801       .  S
C540        O553   1.246       .  A
C540        C610   1.386       .  S
O541        C551   1.265       .  A
O541       Al543   1.921   1_554  S
O542        C555   1.284   1_554  A
O542       Al552   1.977       .  S
Al543       O556   1.846       .  S
Al543       O553   1.866       .  S
Al543       O548   1.810       .  S
O544        C551   1.263       .  A
O544       Al552   1.914       .  S
O545        C554   1.288   1_554  A
O545       Al552   2.015       .  S
O546       Al552   1.924       .  S
O547        C554   1.260       .  A
O548       Al552   1.791   1_556  S
O549        C550   1.258       .  A
C550        C603   1.443       .  S
C551        C616   1.446       .  S
C554        C607   1.482       .  S
C555        O556   1.245       .  A
C555        C605   1.474       .  S
O557       C1244   1.265       .  A
O557       Al565   1.923       .  S
C558        O568   1.257       .  A
C558        O559   1.250       .  A
C558        C601   1.447       .  S
O559       Al561   1.899   1_556  S
O560        C562   1.251   1_556  A
O560       Al561   1.851   1_556  S
Al561       O569   1.885       .  S
Al561       O571   1.903       .  S
Al561      O1242   1.799   1_454  S
C562       O1247   1.248   1_455  A
C562        C609   1.386   1_554  S
O563        C573   1.263       .  A
O563       Al565   1.916   1_556  S
O564        C577   1.284   1_556  A
O564       Al574   1.973       .  S
Al565       O578   1.850       .  S
Al565       O575   1.868       .  S
Al565       O570   1.809   1_554  S
O566        C573   1.263       .  A
O566       Al574   1.912       .  S
O567       C1248   1.289       .  A
O567       Al574   2.020       .  S
O568      Al1246   1.923   1_455  S
O569        C576   1.261   1_554  A
O570      Al1233   1.799   1_556  S
O570       Al574   1.789       .  S
O571        C572   1.258       .  A
C572       O1229   1.265   1_455  A
C572        C614   1.442       .  S
C573        C661   1.444       .  S
Al574      O1240   1.923       .  S
O575       C1234   1.248       .  A
C576       O1239   1.289       .  A
C576        C606   1.484       .  S
C577        O578   1.246       .  A
C577        C608   1.473       .  S
O579        C594   1.266       .  A
O579       Al587   1.925       .  S
C580        O581   1.249       .  A
C580        C602   1.447       .  S
O581       Al583   1.892       .  S
O582        C584   1.250       .  A
O582       Al583   1.852       .  S
Al583       O591   1.891       .  S
Al583       O593   1.897       .  S
C584        C666   1.388       .  S
O585        C595   1.264       .  A
O585       Al587   1.921       .  S
O586        C599   1.284       .  A
O586       Al596   1.974       .  S
Al587       O600   1.851       .  S
Al587       O597   1.868       .  S
Al587       O592   1.814       .  S
O588        C595   1.262       .  A
O588       Al596   1.911       .  S
O589       Al596   2.015       .  S
O590       Al596   1.924       .  S
O591        C598   1.262       .  A
O592       Al596   1.791       .  S
C595        C604   1.445       .  S
C598        C668   1.487       .  S
C599        O600   1.246       .  A
C599        C663   1.474       .  S
C601        C602   1.213       .  T
C603        C604   1.212       .  T
C605        C606   1.236       .  T
C607        C608   1.235   1_556  T
C611        C612   1.212       .  T
C613        C614   1.211       .  T
C615       C1178   1.443       .  S
C615        C616   1.213       .  T
C617        C618   1.236       .  T
C619        C620   1.236       .  T
C621        C622   1.179       .  T
C623        C624   1.213       .  T
C625        C626   1.212       .  T
C627        C628   1.212       .  T
C629        C630   1.236       .  T
C631        C632   1.235       .  T
C633       C1306   1.177   1_455  T
C634       C1305   1.177       .  T
C635        C636   1.213       .  T
C637        C638   1.211       .  T
C639        C640   1.210       .  T
C641        C642   1.236       .  T
C643        C644   1.235       .  T
C647        C648   1.212       .  T
C649        C650   1.211       .  T
C651        C652   1.211       .  T
C653        C654   1.235       .  T
C655        C656   1.235       .  T
C657        C658   1.177       .  T
C659        C660   1.211       .  T
C661        C662   1.211       .  T
C663        C664   1.235       .  T
C665       C1338   1.178       .  T
C666       C1337   1.178   1_455  T
C667        C668   1.237       .  T
C669        C670   1.213       .  T
C671        C672   1.212       .  T
O673        C688   1.265       .  A
O673       Al681   1.925       .  S
C674        O684   1.257       .  A
C674        O675   1.248       .  A
C674       C1006   1.448       .  S
O675       Al677   1.892       .  S
O676        C678   1.250       .  A
O676       Al677   1.852       .  S
Al677       O685   1.888       .  S
Al677       O687   1.896       .  S
Al677       O686   1.803       .  S
C678        O691   1.248       .  A
C678       C1001   1.388       .  S
O679        C689   1.264       .  A
O679       Al681   1.921       .  S
O680        C693   1.284       .  A
O680       Al690   1.975       .  S
Al681       O694   1.855       .  S
Al681       O691   1.870       .  S
Al681       O686   1.813       .  S
O682        C689   1.261       .  A
O682       Al690   1.906       .  S
O683        C692   1.288       .  A
O683       Al690   2.014       .  S
O684       Al690   1.925       .  S
O685        C692   1.262       .  A
O686       Al690   1.791       .  S
O687        C688   1.257       .  A
C688        C998   1.441       .  S
C689       C1007   1.445       .  S
C692       C1000   1.484       .  S
C693        O694   1.247       .  A
C693       C1003   1.478       .  S
O695       Al703   1.923       .  S
C696        O706   1.257       .  A
C696        O697   1.249       .  A
C696       C1005   1.448       .  S
O697       Al699   1.894       .  S
O698        C700   1.250       .  A
O698       Al699   1.852       .  S
Al699       O707   1.886       .  S
Al699       O709   1.901       .  S
Al699       O708   1.799       .  S
C700        O713   1.248       .  A
C700        C993   1.388       .  S
O701        C711   1.264       .  A
O701       Al703   1.915       .  S
O702        C715   1.283       .  A
O702       Al712   1.972       .  S
Al703       O716   1.852       .  S
O704        C711   1.263       .  A
O704       Al712   1.913       .  S
O705        C714   1.288       .  A
O707        C714   1.261       .  A
O709        C710   1.258       .  A
C710        C987   1.441       .  S
C711        C995   1.444       .  S
C714        C992   1.483       .  S
C715        O716   1.246       .  A
C715        C989   1.473       .  S
O717        C732   1.266       .  A
O717       Al725   1.924       .  S
C718       O1064   1.257       .  A
C718        O719   1.249       .  A
C718        C984   1.445       .  S
O719       Al721   1.893       .  S
O720        C722   1.250       .  A
O720       Al721   1.855       .  S
Al721       O729   1.886       .  S
Al721       O731   1.906       .  S
Al721      O1066   1.799       .  S
C722       O1071   1.247       .  A
C722        C994   1.388       .  S
O723        C733   1.265       .  A
O723       Al725   1.919       .  S
O724        C737   1.284       .  A
O724       Al734   1.975       .  S
Al725       O738   1.851       .  S
Al725       O735   1.870       .  S
Al725       O730   1.809       .  S
O726        C733   1.263       .  A
O726       Al734   1.911       .  S
O727       C1072   1.288       .  A
O727       Al734   2.013   1_565  S
O728       C1054   1.257       .  A
O728       Al734   1.922   1_565  S
O729        C736   1.261       .  A
O730      Al1057   1.799   1_545  S
O730       Al734   1.790       .  S
O731       C1068   1.260       .  A
C732       O1067   1.260   1_545  A
C732       C1344   1.443   1_545  S
C733        C985   1.444       .  S
O735       C1058   1.248   1_545  A
C736       O1063   1.288       .  A
C736        C990   1.482       .  S
C737        O738   1.246       .  A
C737        C991   1.474       .  S
O739        C754   1.265       .  A
O739       Al747   1.921       .  S
C740        O750   1.257       .  A
C740        O741   1.249       .  A
C740        C983   1.445       .  S
O741       Al743   1.892       .  S
O742        C744   1.250       .  A
O742       Al743   1.853       .  S
Al743       O751   1.887       .  S
Al743       O753   1.901       .  S
Al743       O752   1.800       .  S
C744        O757   1.247       .  A
C744        C981   1.386       .  S
O745        C755   1.264       .  A
O745       Al747   1.918       .  S
O746        C759   1.284       .  A
O746       Al756   1.975       .  S
Al747       O760   1.848       .  S
Al747       O757   1.868       .  S
Al747       O752   1.810       .  S
O748        C755   1.263       .  A
O748       Al756   1.912       .  S
O749        C758   1.288       .  A
O749       Al756   2.015       .  S
O750       Al756   1.923       .  S
O751        C758   1.261       .  A
O752       Al756   1.790       .  S
O753        C754   1.259       .  A
C754        C976   1.440       .  S
C755        C988   1.444       .  S
C758        C978   1.484       .  S
C759        O760   1.245       .  A
C759        C979   1.473       .  S
O761       Al769   1.922       .  S
C762        O772   1.257       .  A
C762        O763   1.249       .  A
C762        C972   1.448       .  S
O763       Al765   1.894       .  S
O764        C766   1.250       .  A
O764       Al765   1.853       .  S
Al765       O773   1.885       .  S
Al765       O775   1.903       .  S
Al765       O774   1.799       .  S
C766        O779   1.247       .  A
C766        C982   1.387       .  S
O767        C777   1.264       .  A
O767       Al769   1.914       .  S
O768        C781   1.284       .  A
O768       Al778   1.975       .  S
Al769       O782   1.850       .  S
O770        C777   1.264       .  A
O770       Al778   1.915       .  S
O771        C780   1.289       .  A
O773        C780   1.261       .  A
O775        C776   1.259       .  A
C776        C986   1.441       .  S
C777        C973   1.444       .  S
C780        C980   1.483       .  S
C781        O782   1.246       .  A
C781        C977   1.474       .  S
O783       C1134   1.266       .  A
O783       Al791   1.926       .  S
C784        O794   1.257       .  A
C784        O785   1.248       .  A
C784        C971   1.448       .  S
O785       Al787   1.891       .  S
O786        C788   1.250       .  A
O786       Al787   1.852       .  S
Al787       O795   1.887       .  S
Al787       O797   1.898       .  S
Al787       O796   1.801       .  S
C788        O801   1.247       .  A
C788        C970   1.388       .  S
O789        C799   1.264       .  A
O789       Al791   1.919       .  S
O790        C803   1.283       .  A
O790       Al800   1.973       .  S
Al791       O804   1.852       .  S
Al791      O1137   1.868       .  S
Al791      O1132   1.813       .  S
O792        C799   1.262       .  A
O792       Al800   1.906       .  S
O793        C802   1.288       .  A
O793      Al1136   2.011   1_545  S
O794      Al1136   1.925   1_545  S
O795        C802   1.262       .  A
O796      Al1127   1.813   1_545  S
O796      Al1136   1.792   1_545  S
O797        C798   1.257       .  A
C798       O1119   1.266   1_545  A
C798        C963   1.442       .  S
C799        C975   1.443       .  S
Al800      O1129   2.011       .  S
Al800      O1130   1.925       .  S
Al800      O1132   1.792       .  S
O801      Al1127   1.868   1_545  S
C802        C967   1.482       .  S
C803        O804   1.246       .  A
C803        C965   1.475       .  S
O805        C820   1.266       .  A
O805       Al813   1.926       .  S
C806        O816   1.257       .  A
C806        O807   1.248       .  A
C806        C959   1.447       .  S
O807       Al809   1.891       .  S
O808        C810   1.250       .  A
O808       Al809   1.852       .  S
Al809       O817   1.887       .  S
Al809       O819   1.895       .  S
Al809       O818   1.801       .  S
C810        O823   1.247       .  A
C810        C969   1.387       .  S
O811        C821   1.264       .  A
O811       Al813   1.920       .  S
O812        C825   1.283       .  A
O812       Al822   1.972       .  S
Al813       O826   1.852       .  S
Al813       O823   1.868       .  S
Al813       O818   1.813       .  S
O814        C821   1.262       .  A
O814       Al822   1.909       .  S
O815        C824   1.288       .  A
O815       Al822   2.013       .  S
O816       Al822   1.924       .  S
O817        C824   1.261       .  A
O818       Al822   1.791       .  S
O819        C820   1.257       .  A
C820        C974   1.440       .  S
C821        C961   1.445       .  S
C824        C966   1.483       .  S
C825        O826   1.246       .  A
C825        C968   1.474       .  S
O827        C842   1.265   1_655  A
O827       Al835   1.927       .  S
C828        O838   1.257       .  A
C828        O829   1.248       .  A
C828        C960   1.448       .  S
O829       Al831   1.892       .  S
O830        C832   1.250       .  A
O830       Al831   1.852       .  S
Al831       O839   1.887       .  S
Al831       O841   1.898       .  S
C832        C958   1.390       .  S
O833        C843   1.263       .  A
O833       Al835   1.918       .  S
O834        C847   1.284       .  A
O834       Al844   1.973       .  S
Al835       O848   1.853       .  S
Al835       O845   1.871       .  S
Al835       O840   1.813       .  S
O836        C843   1.262       .  A
O836       Al844   1.910       .  S
O837       Al844   2.017   1_455  S
O839        C846   1.261       .  A
O840       Al844   1.793       .  S
C843        C964   1.445       .  S
C846        C955   1.484       .  S
C847        O848   1.247       .  A
C847        C953   1.475       .  S
O849       C1200   1.266       .  A
O849       Al857   1.924       .  S
C850        O860   1.257       .  A
C850        O851   1.249       .  A
C850        C947   1.446       .  S
O851       Al853   1.892       .  S
O852        C854   1.250       .  A
O852       Al853   1.856       .  S
Al853       O861   1.887       .  S
Al853       O863   1.903       .  S
Al853       O862   1.799       .  S
C854        O867   1.248       .  A
C854        C957   1.390       .  S
O855        C865   1.265       .  A
O855       Al857   1.919       .  S
O856        C869   1.284       .  A
O856       Al866   1.977       .  S
Al857       O870   1.849       .  S
Al857      O1203   1.871       .  S
Al857      O1198   1.810       .  S
O858        C865   1.263       .  A
O858       Al866   1.912       .  S
O859        C868   1.288       .  A
O859      Al1202   2.015   1_545  S
O860      Al1202   1.924   1_545  S
O861        C868   1.261       .  A
O862      Al1193   1.810   1_545  S
O862      Al1202   1.791   1_545  S
O863        C864   1.259       .  A
C864       O1185   1.266   1_545  A
C864        C962   1.442       .  S
C865        C949   1.444       .  S
Al866      O1195   2.015       .  S
Al866      O1196   1.924       .  S
Al866      O1198   1.791       .  S
O867      Al1193   1.871   1_545  S
C868        C954   1.484       .  S
C869        O870   1.245       .  A
C869        C956   1.474       .  S
O871        C886   1.266       .  A
O871       Al879   1.925       .  S
C872        O882   1.257       .  A
C872        O873   1.249       .  A
C872        C948   1.446       .  S
O873       Al875   1.891   1_554  S
O874        C876   1.250       .  A
O874       Al875   1.852       .  S
Al875       O883   1.884       .  S
Al875       O885   1.901       .  S
Al875       O884   1.801       .  S
C876        O889   1.246       .  A
C876        C946   1.386       .  S
O877        C887   1.265       .  A
O877       Al879   1.921   1_554  S
O878        C891   1.284   1_554  A
O878       Al888   1.977       .  S
Al879       O892   1.846       .  S
Al879       O889   1.866       .  S
Al879       O884   1.810       .  S
O880        C887   1.263       .  A
O880       Al888   1.913       .  S
O881        C890   1.288   1_554  A
O881       Al888   2.015       .  S
O882       Al888   1.924       .  S
O883        C890   1.260       .  A
O884       Al888   1.792   1_556  S
O885        C886   1.258       .  A
C886        C939   1.443       .  S
C887        C952   1.446       .  S
C890        C943   1.482       .  S
C891        O892   1.245       .  A
C891        C941   1.474       .  S
O893       Al901   1.923       .  S
C894        O904   1.257       .  A
C894        O895   1.250       .  A
C894        C937   1.447       .  S
O895       Al897   1.899   1_556  S
O896        C898   1.251   1_556  A
O896       Al897   1.851   1_556  S
Al897       O905   1.885       .  S
Al897       O907   1.902       .  S
C898        C945   1.386   1_554  S
O899        C909   1.263       .  A
O899       Al901   1.916   1_556  S
O900        C913   1.284   1_556  A
O900       Al910   1.973       .  S
Al901       O914   1.851       .  S
Al901       O911   1.868       .  S
Al901       O906   1.809   1_554  S
O902        C909   1.263       .  A
O902       Al910   1.912       .  S
O903       Al910   2.020   1_455  S
O905        C912   1.261   1_554  A
O906       Al910   1.789       .  S
O907        C908   1.258       .  A
C908        C950   1.442       .  S
C909        C997   1.444       .  S
C912        C942   1.484       .  S
C913        O914   1.246       .  A
C913        C944   1.473       .  S
O915        C930   1.266       .  A
O915       Al923   1.925       .  S
C916       O1262   1.257       .  A
C916        O917   1.249       .  A
C916        C938   1.447       .  S
O917       Al919   1.892       .  S
O918        C920   1.250       .  A
O918       Al919   1.852       .  S
Al919       O927   1.891       .  S
Al919       O929   1.897       .  S
Al919      O1264   1.802       .  S
C920       O1269   1.247       .  A
C920       C1002   1.388       .  S
O921        C931   1.264       .  A
O921       Al923   1.921       .  S
O922        C935   1.284       .  A
O922       Al932   1.974       .  S
Al923       O936   1.851       .  S
Al923       O933   1.868       .  S
Al923       O928   1.813       .  S
O924        C931   1.262       .  A
O924       Al932   1.911       .  S
O925       C1270   1.288       .  A
O925       Al932   2.015   1_565  S
O926       C1252   1.257       .  A
O926       Al932   1.924   1_565  S
O927        C934   1.262       .  A
O928      Al1255   1.802   1_545  S
O928       Al932   1.791       .  S
O929       C1266   1.258       .  A
C930       O1265   1.258   1_545  A
C930       C1332   1.441   1_545  S
C931        C940   1.445       .  S
O933       C1256   1.247   1_545  A
C934       O1261   1.288       .  A
C934       C1004   1.487       .  S
C935        O936   1.246       .  A
C935        C999   1.474       .  S
C937        C938   1.213       .  T
C939        C940   1.212       .  T
C941        C942   1.236       .  T
C943        C944   1.235   1_556  T
C945       C1282   1.176       .  T
C946       C1281   1.176   1_545  T
C947        C948   1.212       .  T
C949        C950   1.211       .  T
C951        C952   1.213       .  T
C953        C954   1.236       .  T
C955        C956   1.236       .  T
C957        C958   1.179       .  T
C959        C960   1.213       .  T
C961        C962   1.212       .  T
C963        C964   1.212       .  T
C965        C966   1.236       .  T
C967        C968   1.235       .  T
C971        C972   1.213       .  T
C973        C974   1.211       .  T
C975        C976   1.210       .  T
C977        C978   1.236       .  T
C979        C980   1.235       .  T
C981       C1318   1.176       .  T
C982       C1317   1.176   1_545  T
C983        C984   1.212       .  T
C985        C986   1.211       .  T
C987        C988   1.211       .  T
C989        C990   1.235       .  T
C991        C992   1.235       .  T
C993        C994   1.177       .  T
C995        C996   1.211       .  T
C996       C1266   1.441       .  S
C997        C998   1.211       .  T
C999       C1000   1.236       .  T
C1003      C1004   1.237       .  T
C1005      C1006   1.213       .  T
C1007      C1008   1.212       .  T
C1008      C1068   1.443       .  S
O1009      C1024   1.265       .  A
O1009     Al1017   1.926       .  S
C1010      O1020   1.257       .  A
C1010      O1011   1.248       .  A
C1010      C1342   1.448       .  S
O1011     Al1013   1.892       .  S
O1012      C1014   1.250       .  A
O1012     Al1013   1.852       .  S
Al1013     O1021   1.887       .  S
Al1013     O1023   1.896       .  S
Al1013     O1022   1.802       .  S
C1014      O1027   1.248       .  A
C1014      C1337   1.388       .  S
O1015      C1025   1.264       .  A
O1015     Al1017   1.921       .  S
O1016      C1029   1.284       .  A
O1016     Al1026   1.975       .  S
Al1017     O1030   1.855       .  S
Al1017     O1027   1.870       .  S
Al1017     O1022   1.813       .  S
O1018      C1025   1.262       .  A
O1018     Al1026   1.906       .  S
O1019      C1028   1.288       .  A
O1019     Al1026   2.014       .  S
O1020     Al1026   1.925       .  S
O1021      C1028   1.262       .  A
O1022     Al1026   1.790       .  S
O1023      C1024   1.257       .  A
C1024      C1334   1.441       .  S
C1025      C1343   1.445       .  S
C1028      C1336   1.483       .  S
C1029      O1030   1.247       .  A
C1029      C1339   1.478       .  S
O1031     Al1039   1.923       .  S
C1032      O1042   1.257       .  A
C1032      O1033   1.249       .  A
C1032      C1341   1.448       .  S
O1033     Al1035   1.894       .  S
O1034      C1036   1.250       .  A
O1034     Al1035   1.852       .  S
Al1035     O1043   1.886       .  S
Al1035     O1045   1.901       .  S
Al1035     O1044   1.799       .  S
C1036      O1049   1.248       .  A
C1036      C1329   1.388       .  S
O1037      C1047   1.263       .  A
O1037     Al1039   1.915       .  S
O1038      C1051   1.283       .  A
O1038     Al1048   1.971       .  S
Al1039     O1052   1.852       .  S
O1040      C1047   1.263       .  A
O1040     Al1048   1.913       .  S
O1041      C1050   1.288       .  A
O1043      C1050   1.261       .  A
O1045      C1046   1.258       .  A
C1046      C1323   1.441       .  S
C1047      C1331   1.444       .  S
C1050      C1328   1.483       .  S
C1051      O1052   1.246       .  A
C1051      C1325   1.473       .  S
O1053      C1068   1.266       .  A
O1053     Al1061   1.924       .  S
C1054      O1055   1.249       .  A
C1054      C1320   1.445       .  S
O1055     Al1057   1.893       .  S
O1056      C1058   1.250       .  A
O1056     Al1057   1.855       .  S
Al1057     O1065   1.886       .  S
Al1057     O1067   1.906       .  S
C1058      C1330   1.388       .  S
O1059      C1069   1.265       .  A
O1059     Al1061   1.919       .  S
O1060      C1073   1.284       .  A
O1060     Al1070   1.975       .  S
Al1061     O1074   1.851       .  S
Al1061     O1071   1.870       .  S
Al1061     O1066   1.809       .  S
O1062      C1069   1.263       .  A
O1062     Al1070   1.911       .  S
O1063     Al1070   2.013       .  S
O1064     Al1070   1.922       .  S
O1065      C1072   1.261       .  A
O1066     Al1070   1.790       .  S
C1069      C1321   1.444       .  S
C1072      C1326   1.482       .  S
C1073      O1074   1.246       .  A
C1073      C1327   1.474       .  S
O1075      C1090   1.265       .  A
O1075     Al1083   1.921       .  S
C1076      O1086   1.257       .  A
C1076      O1077   1.249       .  A
C1076      C1319   1.445       .  S
O1077     Al1079   1.892       .  S
O1078      C1080   1.250       .  A
O1078     Al1079   1.853       .  S
Al1079     O1087   1.887       .  S
Al1079     O1089   1.901       .  S
Al1079     O1088   1.800       .  S
C1080      O1093   1.247       .  A
C1080      C1317   1.387       .  S
O1081      C1091   1.264       .  A
O1081     Al1083   1.918       .  S
O1082      C1095   1.284       .  A
O1082     Al1092   1.975       .  S
Al1083     O1096   1.848       .  S
Al1083     O1093   1.868       .  S
Al1083     O1088   1.810       .  S
O1084      C1091   1.263       .  A
O1084     Al1092   1.912       .  S
O1085      C1094   1.288       .  A
O1085     Al1092   2.015       .  S
O1086     Al1092   1.923       .  S
O1087      C1094   1.261       .  A
O1088     Al1092   1.790       .  S
O1089      C1090   1.259       .  A
C1090      C1312   1.440       .  S
C1091      C1324   1.444       .  S
C1094      C1314   1.484       .  S
C1095      O1096   1.245       .  A
C1095      C1315   1.473       .  S
O1097     Al1105   1.922       .  S
C1098      O1108   1.257       .  A
C1098      O1099   1.249       .  A
C1098      C1308   1.447       .  S
O1099     Al1101   1.894       .  S
O1100      C1102   1.250       .  A
O1100     Al1101   1.853       .  S
Al1101     O1109   1.885       .  S
Al1101     O1111   1.903       .  S
Al1101     O1110   1.800       .  S
C1102      O1115   1.247       .  A
C1102      C1318   1.387       .  S
O1103      C1113   1.264       .  A
O1103     Al1105   1.914       .  S
O1104      C1117   1.284       .  A
O1104     Al1114   1.975       .  S
Al1105     O1118   1.850       .  S
O1106      C1113   1.264       .  A
O1106     Al1114   1.915       .  S
O1107      C1116   1.289       .  A
O1109      C1116   1.261       .  A
O1111      C1112   1.259       .  A
C1112      C1322   1.441       .  S
C1113      C1309   1.444       .  S
C1116      C1316   1.483       .  S
C1117      O1118   1.246       .  A
C1117      C1313   1.474       .  S
O1119     Al1127   1.926       .  S
C1120      O1130   1.257       .  A
C1120      O1121   1.248       .  A
C1120      C1307   1.447       .  S
O1121     Al1123   1.891       .  S
O1122      C1124   1.250       .  A
O1122     Al1123   1.852       .  S
Al1123     O1131   1.887       .  S
Al1123     O1133   1.897       .  S
Al1123     O1132   1.801       .  S
C1124      O1137   1.247       .  A
C1124      C1306   1.387       .  S
O1125      C1135   1.264       .  A
O1125     Al1127   1.919       .  S
O1126      C1139   1.283       .  A
O1126     Al1136   1.973       .  S
Al1127     O1140   1.852       .  S
O1128      C1135   1.262       .  A
O1128     Al1136   1.906       .  S
O1129      C1138   1.288       .  A
O1131      C1138   1.262       .  A
O1133      C1134   1.257       .  A
C1134      C1299   1.442       .  S
C1135      C1311   1.442       .  S
C1138      C1303   1.483       .  S
C1139      O1140   1.246       .  A
C1139      C1301   1.475       .  S
O1141      C1156   1.266       .  A
O1141     Al1149   1.926       .  S
C1142      O1152   1.257       .  A
C1142      O1143   1.248       .  A
C1142      C1295   1.447       .  S
O1143     Al1145   1.890       .  S
O1144      C1146   1.250       .  A
O1144     Al1145   1.852       .  S
Al1145     O1153   1.887       .  S
Al1145     O1155   1.895       .  S
Al1145     O1154   1.801       .  S
C1146      O1159   1.247       .  A
C1146      C1305   1.387       .  S
O1147      C1157   1.264       .  A
O1147     Al1149   1.920       .  S
O1148      C1161   1.283       .  A
O1148     Al1158   1.972       .  S
Al1149     O1162   1.852       .  S
Al1149     O1159   1.868       .  S
Al1149     O1154   1.813       .  S
O1150      C1157   1.262       .  A
O1150     Al1158   1.909       .  S
O1151      C1160   1.288       .  A
O1151     Al1158   2.013       .  S
O1152     Al1158   1.924       .  S
O1153      C1160   1.261       .  A
O1154     Al1158   1.791       .  S
O1155      C1156   1.257       .  A
C1156      C1310   1.440       .  S
C1157      C1297   1.445       .  S
C1160      C1302   1.483       .  S
C1161      O1162   1.246       .  A
C1161      C1304   1.474       .  S
O1163      C1178   1.265   1_655  A
O1163     Al1171   1.926       .  S
C1164      O1174   1.257       .  A
C1164      O1165   1.248       .  A
C1164      C1296   1.447       .  S
O1165     Al1167   1.892       .  S
O1166      C1168   1.250       .  A
O1166     Al1167   1.852       .  S
Al1167     O1175   1.887       .  S
Al1167     O1177   1.898       .  S
C1168      C1294   1.390       .  S
O1169      C1179   1.263       .  A
O1169     Al1171   1.918       .  S
O1170      C1183   1.284       .  A
O1170     Al1180   1.973       .  S
Al1171     O1184   1.853       .  S
Al1171     O1181   1.871       .  S
Al1171     O1176   1.813       .  S
O1172      C1179   1.262       .  A
O1172     Al1180   1.911       .  S
O1173     Al1180   2.017   1_455  S
O1175      C1182   1.261       .  A
O1176     Al1180   1.793       .  S
C1179      C1300   1.445       .  S
C1182      C1291   1.484       .  S
C1183      O1184   1.247       .  A
C1183      C1289   1.475       .  S
O1185     Al1193   1.924       .  S
C1186      O1196   1.257       .  A
C1186      O1187   1.249       .  A
C1186      C1283   1.446       .  S
O1187     Al1189   1.892       .  S
O1188      C1190   1.250       .  A
O1188     Al1189   1.856       .  S
Al1189     O1197   1.887       .  S
Al1189     O1199   1.903       .  S
Al1189     O1198   1.799       .  S
C1190      O1203   1.248       .  A
C1190      C1293   1.390       .  S
O1191      C1201   1.265       .  A
O1191     Al1193   1.919       .  S
O1192      C1205   1.284       .  A
O1192     Al1202   1.977       .  S
Al1193     O1206   1.849       .  S
O1194      C1201   1.263       .  A
O1194     Al1202   1.912       .  S
O1195      C1204   1.288       .  A
O1197      C1204   1.261       .  A
O1199      C1200   1.259       .  A
C1200      C1298   1.442       .  S
C1201      C1285   1.444       .  S
C1204      C1290   1.484       .  S
C1205      O1206   1.245       .  A
C1205      C1292   1.474       .  S
O1207      C1222   1.266       .  A
O1207     Al1215   1.925       .  S
C1208      O1218   1.257       .  A
C1208      O1209   1.249       .  A
C1208      C1284   1.446       .  S
O1209     Al1211   1.892   1_554  S
O1210      C1212   1.250       .  A
O1210     Al1211   1.852       .  S
Al1211     O1219   1.884       .  S
Al1211     O1221   1.901       .  S
Al1211     O1220   1.801       .  S
C1212      O1225   1.247       .  A
C1212      C1282   1.386       .  S
O1213      C1223   1.265       .  A
O1213     Al1215   1.921   1_554  S
O1214      C1227   1.284   1_554  A
O1214     Al1224   1.977       .  S
Al1215     O1228   1.847       .  S
Al1215     O1225   1.866       .  S
Al1215     O1220   1.810       .  S
O1216      C1223   1.263       .  A
O1216     Al1224   1.914       .  S
O1217      C1226   1.288   1_554  A
O1217     Al1224   2.015       .  S
O1218     Al1224   1.924       .  S
O1219      C1226   1.260       .  A
O1220     Al1224   1.791   1_556  S
O1221      C1222   1.258       .  A
C1222      C1275   1.443       .  S
C1223      C1288   1.446       .  S
C1226      C1279   1.482       .  S
C1227      O1228   1.245       .  A
C1227      C1277   1.474       .  S
O1229     Al1237   1.923       .  S
C1230      O1240   1.257       .  A
C1230      O1231   1.250       .  A
C1230      C1273   1.448       .  S
O1231     Al1233   1.899   1_556  S
O1232      C1234   1.251   1_556  A
O1232     Al1233   1.851   1_556  S
Al1233     O1241   1.885       .  S
Al1233     O1243   1.903       .  S
C1234      C1281   1.386   1_554  S
O1235      C1245   1.263       .  A
O1235     Al1237   1.916   1_556  S
O1236      C1249   1.284   1_556  A
O1236     Al1246   1.973       .  S
Al1237     O1250   1.851       .  S
Al1237     O1247   1.868       .  S
Al1237     O1242   1.809   1_554  S
O1238      C1245   1.263       .  A
O1238     Al1246   1.912       .  S
O1239     Al1246   2.020   1_455  S
O1241      C1248   1.261   1_554  A
O1242     Al1246   1.789       .  S
O1243      C1244   1.258       .  A
C1244      C1286   1.442       .  S
C1245      C1333   1.444       .  S
C1248      C1278   1.484       .  S
C1249      O1250   1.246       .  A
C1249      C1280   1.473       .  S
O1251      C1266   1.266       .  A
O1251     Al1259   1.925       .  S
C1252      O1253   1.249       .  A
C1252      C1274   1.447       .  S
O1253     Al1255   1.892       .  S
O1254      C1256   1.250       .  A
O1254     Al1255   1.852       .  S
Al1255     O1263   1.891       .  S
Al1255     O1265   1.897       .  S
C1256      C1338   1.389       .  S
O1257      C1267   1.264       .  A
O1257     Al1259   1.921       .  S
O1258      C1271   1.284       .  A
O1258     Al1268   1.974       .  S
Al1259     O1272   1.851       .  S
Al1259     O1269   1.868       .  S
Al1259     O1264   1.813       .  S
O1260      C1267   1.262       .  A
O1260     Al1268   1.911       .  S
O1261     Al1268   2.015       .  S
O1262     Al1268   1.924       .  S
O1263      C1270   1.262       .  A
O1264     Al1268   1.791       .  S
C1267      C1276   1.445       .  S
C1270      C1340   1.487       .  S
C1271      O1272   1.246       .  A
C1271      C1335   1.474       .  S
C1273      C1274   1.213       .  T
C1275      C1276   1.212       .  T
C1277      C1278   1.236       .  T
C1279      C1280   1.235   1_556  T
C1283      C1284   1.212       .  T
C1285      C1286   1.211       .  T
C1287      C1288   1.213       .  T
C1289      C1290   1.236       .  T
C1291      C1292   1.236       .  T
C1293      C1294   1.179       .  T
C1295      C1296   1.213       .  T
C1297      C1298   1.212       .  T
C1299      C1300   1.212       .  T
C1301      C1302   1.236       .  T
C1303      C1304   1.235       .  T
C1307      C1308   1.213       .  T
C1309      C1310   1.211       .  T
C1311      C1312   1.210       .  T
C1313      C1314   1.236       .  T
C1315      C1316   1.235       .  T
C1319      C1320   1.212       .  T
C1321      C1322   1.211       .  T
C1323      C1324   1.211       .  T
C1325      C1326   1.235       .  T
C1327      C1328   1.235       .  T
C1329      C1330   1.177       .  T
C1331      C1332   1.211       .  T
C1333      C1334   1.211       .  T
C1335      C1336   1.236       .  T
C1339      C1340   1.237       .  T
C1341      C1342   1.213       .  T
C1343      C1344   1.212       .  T
