geometry optimzed in LAMMPS
_audit_creation_date              2020-12-01 
_audit_creation_method            'lammps2cif' 
_symmetry_space_group_name_H-M    'P1' 
_symmetry_Int_Tables_number       1 
_symmetry_cell_setting            triclinic 
loop_ 
_symmetry_equiv_pos_as_xyz 
  x,y,z 
_cell_length_a                    31.46692213 
_cell_length_b                    31.665124973082936 
_cell_length_c                    26.664146421486166 
_cell_angle_alpha                 90.62708429279229 
_cell_angle_beta                  89.82096610013797 
_cell_angle_gamma                 90.1484706140446 
loop_ 
_atom_site_label 
_atom_site_type_symbol 
_atom_site_fract_x 
_atom_site_fract_y 
_atom_site_fract_z 
_atom_site_charge 
O1          O  0.46714880  0.81301881  0.18740420    -0.85900
O2          O  0.48701826  0.85711260  0.10314852    -0.86100
C3          C  0.52046476  0.87620644  0.11662942     0.97600
O4          O  0.55495977  0.85603996  0.12136982    -0.83000
O5          O  0.60843241  0.78451130  0.13557717    -0.85600
C6          C  0.60648949  0.77084044  0.18007896     1.02100
O7          O  0.57085413  0.76339005  0.19976197    -0.78400
O8          O  0.48528015  0.74889196  0.20979310    -0.78600
C9          C  0.47127523  0.78535797  0.22051276     1.02000
O10         O  0.43743723  0.74347154  0.12703863    -0.85900
O11         O  0.46727391  0.78417976  0.04388608    -0.83000
C12         C  0.49334069  0.79948575  0.01299491     0.97600
O13         O  0.52650479  0.81825307  0.02837136    -0.83000
O14         O  0.57264994  0.74728933  0.04782862    -0.85600
C15         C  0.58321975  0.71362396  0.06928065     1.02100
O16         O  0.57451976  0.70788464  0.11500161    -0.78400
O17         O  0.48906166  0.69842229  0.11754969    -0.78600
C18         C  0.45049529  0.70766571  0.11266179     1.02000
Cr19       Cr  0.46837648  0.79808415  0.11569916     1.93700
Cr20       Cr  0.56261072  0.80041087  0.08630142     1.93200
Cr21       Cr  0.52895036  0.73279465  0.15814084     1.39100
O22         O  0.52028244  0.77736889  0.12050727    -1.23600
O23         O  0.78812891  0.47692377  0.30542169    -0.85900
O24         O  0.83950630  0.49009251  0.38654404    -0.82900
C25         C  0.85666246  0.52416667  0.37327842     0.97600
O26         O  0.83480979  0.55767718  0.37195040    -0.83000
O27         O  0.76057852  0.60907483  0.37175797    -0.85600
C28         C  0.74024158  0.60909534  0.33091441     1.02100
O29         O  0.72742682  0.57505856  0.31118987    -0.78400
O30         O  0.72005538  0.48979314  0.29510645    -0.78600
C31         C  0.75653641  0.48163507  0.27708961     1.02000
O32         O  0.72665371  0.43649883  0.36881732    -0.85900
O33         O  0.77323653  0.46408619  0.45166709    -0.83000
C34         C  0.79008420  0.49014216  0.48207785     0.97600
O35         O  0.80663228  0.52405503  0.46632806    -0.83000
O36         O  0.73390316  0.57156721  0.46137283    -0.85600
C37         C  0.69639295  0.57952953  0.44769700     1.02100
O38         O  0.68321282  0.56857007  0.40473315    -0.78400
O39         O  0.68011131  0.48276694  0.39385169    -0.78600
C40         C  0.69138756  0.44486028  0.38900921     1.02000
Cr41       Cr  0.78013271  0.47047710  0.37835234     1.93700
Cr42       Cr  0.78240522  0.56244427  0.41480641     1.93200
Cr43       Cr  0.70631743  0.52822626  0.35325711     1.39100
O44         O  0.75619948  0.52097722  0.38204104    -1.23600
O45         O  0.47989806  0.25133140  0.70699176    -0.85900
O46         O  0.56453598  0.23381925  0.69363058    -0.82900
C47         C  0.59917897  0.22367682  0.67296025     0.97600
O48         O  0.59921176  0.20840333  0.62875844    -0.83000
O49         O  0.54293627  0.13702977  0.62221199    -0.85600
C50         C  0.50775785  0.11714531  0.62051435     1.02100
O51         O  0.47424452  0.13629765  0.60786838    -0.78400
O52         O  0.45949579  0.18637792  0.69017812    -0.78600
C53         C  0.46709244  0.21553136  0.72147244     1.02000
O54         O  0.48124243  0.29600186  0.61177627    -0.85900
O55         O  0.56619900  0.28381148  0.60586441    -0.83000
C56         C  0.57069093  0.27734074  0.55937721     0.97600
O57         O  0.56075736  0.24180387  0.54046067    -0.83000
O58         O  0.51137418  0.16970089  0.53010367    -0.85600
C59         C  0.47926021  0.18929207  0.51412341     1.02100
O60         O  0.45382854  0.20653872  0.54464134    -0.78400
O61         O  0.42919057  0.25270828  0.62731610    -0.78600
C62         C  0.44230470  0.28712031  0.60941652     1.02000
Cr63       Cr  0.52182933  0.26298234  0.65244328     1.93700
Cr64       Cr  0.55087100  0.19065176  0.58324214     1.93200
Cr65       Cr  0.45776082  0.19674080  0.61749555     1.39100
O66         O  0.51046300  0.21649360  0.61818903    -1.23600
O67         O  0.73588514  0.47451943  0.78711106    -0.85900
O68         O  0.70905133  0.40448646  0.83564830    -0.82900
C69         C  0.73834213  0.37834073  0.82673595     0.97600
O70         O  0.77591346  0.38644816  0.84060986    -0.83000
O71         O  0.84415428  0.43060979  0.89046468    -0.85600
C72         C  0.86325452  0.46051368  0.86817142     1.02100
O73         O  0.84259386  0.49097295  0.85122737    -0.78400
O74         O  0.77480872  0.52935045  0.81040795    -0.78600
C75         C  0.76055963  0.50441407  0.77640635     1.02000
O76         O  0.69703389  0.52772803  0.85948008    -0.85900
O77         O  0.68352425  0.45594944  0.91725962    -0.83000
C78         C  0.68997084  0.42116082  0.93863837     0.97600
O79         O  0.72365989  0.40000826  0.92961528    -0.83000
O80         O  0.78634812  0.44473912  0.97089135    -0.85600
C81         C  0.80044167  0.48012784  0.98447613     1.02100
O82         O  0.81247203  0.50724617  0.95274991    -0.78400
O83         O  0.74414763  0.54425892  0.91514410    -0.78600
C84         C  0.70835099  0.54998730  0.89635446     1.02000
Cr85       Cr  0.71048127  0.46602664  0.85198110     1.93700
Cr86       Cr  0.78163281  0.41899976  0.90505412     1.93200
Cr87       Cr  0.79108293  0.51441634  0.88183181     1.39100
O88         O  0.76187987  0.46638712  0.87936307    -1.23600
O89         O  0.50868214  0.18786871  0.19044287    -0.85900
O90         O  0.49198903  0.13968974  0.10575989    -0.82900
C91         C  0.46037277  0.12052496  0.12327731     0.97600
O92         O  0.42650998  0.14085977  0.13205093    -0.83000
O93         O  0.37141361  0.21148282  0.14582847    -0.85600
C94         C  0.37439529  0.23229404  0.18664647     1.02100
O95         O  0.40866834  0.24989340  0.19930674    -0.78400
O96         O  0.49386339  0.25478647  0.20716367    -0.78600
C97         C  0.50316622  0.21775757  0.22156424     1.02000
O98         O  0.54284542  0.25141515  0.12970947    -0.85900
O99         O  0.51094006  0.20975468  0.04596745    -0.83000
C100        C  0.48315069  0.19418844  0.01694939     0.97600
O101        O  0.45061987  0.17534485  0.03453143    -0.83000
O102        O  0.39961410  0.24245360  0.05170604    -0.85600
C103        C  0.39539403  0.28055303  0.06477925     1.02100
O104        O  0.40964448  0.29403391  0.10624471    -0.78400
O105        O  0.49584680  0.29714078  0.10825967    -0.78600
C106        C  0.53396131  0.28550786  0.10881587     1.02000
Cr107      Cr  0.50993355  0.19870884  0.11826377     1.93700
Cr108      Cr  0.41519685  0.19411739  0.09381294     1.93200
Cr109      Cr  0.45274070  0.27044152  0.15296655     1.39100
O110        O  0.45839712  0.22107508  0.12218866    -1.23600
O111        O  0.16774225  0.50576790  0.33169666    -0.85900
O112        O  0.11611833  0.48347937  0.41050618    -0.82900
C113        C  0.09735493  0.45478515  0.38608024     0.97600
O114        O  0.11662262  0.42027625  0.37712897    -0.83000
O115        O  0.18741275  0.36307118  0.36605471    -0.85600
C116        C  0.20696381  0.36856217  0.32495810     1.02100
O117        O  0.22115401  0.40427840  0.31386753    -0.78400
O118        O  0.23389594  0.48807092  0.31482004    -0.78600
C119        C  0.19758172  0.50056687  0.30031985     1.02000
O120        O  0.23190158  0.53057288  0.40090497    -0.85900
O121        O  0.18518722  0.49462873  0.47804960    -0.83000
C122        C  0.16627583  0.46612078  0.50261628     0.97600
O123        O  0.14573945  0.43727600  0.47957103    -0.83000
O124        O  0.21468158  0.38836689  0.46338927    -0.85600
C125        C  0.25304452  0.38355214  0.45074310     1.02100
O126        O  0.26619805  0.39509132  0.40803521    -0.78400
O127        O  0.27598873  0.47937884  0.41324389    -0.78600
C128        C  0.26664484  0.51766867  0.41806959     1.02000
Cr129      Cr  0.17661047  0.50023801  0.40480540     1.93700
Cr130      Cr  0.16760006  0.40518182  0.41908512     1.93200
Cr131      Cr  0.24583888  0.44226009  0.36465285     1.39100
O132        O  0.19677359  0.44872834  0.39584443    -1.23600
O133        O  0.25242166  0.50074640  0.81422824    -0.85900
O134        O  0.23277696  0.58467705  0.82499423    -0.82900
C135        C  0.21750157  0.61818940  0.84336522     0.97600
O136        O  0.19779210  0.61759695  0.88505355    -0.83000
O137        O  0.12852827  0.55833851  0.88739980    -0.85600
C138        C  0.10990680  0.52275342  0.88896603     1.02100
O139        O  0.13041944  0.49053988  0.90233792    -0.78400
O140        O  0.18645972  0.47912072  0.82263100    -0.78600
C141        C  0.21811610  0.48725643  0.79491293     1.02000
O142        O  0.28974483  0.50396050  0.91440476    -0.85900
O143        O  0.27615211  0.58788535  0.91937534    -0.83000
C144        C  0.26373090  0.59378966  0.96400181     0.97600
O145        O  0.22676124  0.58323117  0.97722979    -0.83000
O146        O  0.15922962  0.53018148  0.98436016    -0.85600
C147        C  0.18037768  0.49918519  0.00085179     1.02100
O148        O  0.19863765  0.47425747  0.97043953    -0.78400
O149        O  0.25001717  0.45092001  0.89198720    -0.78600
C150        C  0.28242294  0.46496139  0.91445333     1.02000
Cr151      Cr  0.25917829  0.54314681  0.87002360     1.93700
Cr152      Cr  0.17976366  0.56961058  0.93042923     1.93200
Cr153      Cr  0.19234773  0.47739958  0.89683486     1.39100
O154        O  0.21008168  0.53055047  0.89851348    -1.23600
O155        O  0.45266108  0.74314893  0.70902634    -0.85900
O156        O  0.37563428  0.72808018  0.66685315    -0.82900
C157        C  0.35350272  0.76026139  0.67685407     0.97600
O158        O  0.36419157  0.79600535  0.66022080    -0.83000
O159        O  0.41425572  0.85693135  0.60915038    -0.85600
C160        C  0.44543675  0.87226141  0.63340475     1.02100
O161        O  0.47439776  0.84853915  0.64902192    -0.78400
O162        O  0.51023328  0.77567296  0.68242787    -0.78600
C163        C  0.48657733  0.76296660  0.71796824     1.02000
O164        O  0.49381764  0.69957252  0.62817674    -0.85900
O165        O  0.41711312  0.69622106  0.57976980    -0.83000
C166        C  0.38213421  0.70717174  0.56118009     0.97600
O167        O  0.36639140  0.74312369  0.57165545    -0.83000
O168        O  0.41897135  0.79877443  0.52674352    -0.85600
C169        C  0.45475532  0.81287248  0.51395204     1.02100
O170        O  0.48301119  0.82127233  0.54633037    -0.78400
O171        O  0.51669518  0.74773689  0.57705501    -0.78600
C172        C  0.51736741  0.71044240  0.59231599     1.02000
Cr173      Cr  0.43554527  0.72092975  0.64401689     1.93700
Cr174      Cr  0.39474009  0.79717899  0.59431867     1.93200
Cr175      Cr  0.49197305  0.79611909  0.61425750     1.39100
O176        O  0.44081735  0.77195159  0.61782719    -1.23600
C177        C  0.23090150  0.65887939  0.82140708    -0.05800
C178        C  0.25543733  0.68639478  0.85133559    -0.05700
C179        C  0.28025149  0.71807142  0.82958354    -0.23900
C180        C  0.28028552  0.72345713  0.77749138     0.18300
C181        C  0.25224325  0.69888077  0.74758924     0.15600
C182        C  0.22832031  0.66615018  0.76958892    -0.18900
C183        C  0.25139721  0.70514472  0.69566395    -0.20700
C184        C  0.28114795  0.73181684  0.67309296    -0.13300
C185        C  0.31249446  0.75238468  0.70185809     0.03400
C186        C  0.31049893  0.74994156  0.75436988    -0.25400
H187        H  0.25837454  0.68098123  0.89121801     0.08500
H188        H  0.30118133  0.73678579  0.85325812     0.12100
H189        H  0.20981296  0.64481874  0.74615052     0.12000
H190        H  0.22977988  0.68714132  0.67209477     0.11800
H191        H  0.28266616  0.73268258  0.63250681     0.12300
H192        H  0.33513485  0.76494588  0.77674609     0.14200
C193        C  0.35788041  0.67699351  0.52989075    -0.05800
C194        C  0.31960838  0.68969432  0.50779556    -0.05700
C195        C  0.29504167  0.66100247  0.48055885    -0.23900
C196        C  0.30820635  0.61902388  0.47512759     0.18300
C197        C  0.34668497  0.60568997  0.49691389     0.15600
C198        C  0.37147904  0.63486188  0.52400378    -0.18900
C199        C  0.35926077  0.56333483  0.49172397    -0.20700
C200        C  0.33368376  0.53449831  0.46538941    -0.13300
C201        C  0.29536100  0.54773255  0.44371102     0.03400
C202        C  0.28304028  0.59014655  0.44866322    -0.25400
H203        H  0.30835545  0.72184678  0.51192205     0.08500
H204        H  0.26552556  0.67156490  0.46413809     0.12100
H205        H  0.40079754  0.62458548  0.54119534     0.12000
H206        H  0.38857360  0.55247742  0.50836060     0.11800
H207        H  0.34364870  0.50183877  0.46243044     0.12300
H208        H  0.25342109  0.60074426  0.43248300     0.14200
C209        C  0.16924739  0.46553467  0.55801040    -0.05800
C210        C  0.14013492  0.44233861  0.58694493    -0.05700
C211        C  0.14422918  0.44067994  0.63919829    -0.23900
C212        C  0.17795721  0.46158262  0.66333679     0.18300
C213        C  0.20817715  0.48368120  0.63421488     0.15600
C214        C  0.20340984  0.48586464  0.58203487    -0.18900
C215        C  0.24262640  0.50355184  0.65772200    -0.20700
C216        C  0.24641999  0.50289401  0.70975963    -0.13300
C217        C  0.21566801  0.48268638  0.73959040     0.03400
C218        C  0.18171259  0.46141912  0.71598668    -0.25400
H219        H  0.11398205  0.42574312  0.56917405     0.08500
H220        H  0.12099299  0.42314065  0.66069911     0.12100
H221        H  0.22675614  0.50286456  0.56000763     0.12000
H222        H  0.26629837  0.52026326  0.63592066     0.11800
H223        H  0.27285120  0.51962541  0.72677265     0.12300
H224        H  0.15795229  0.44548789  0.73847708     0.14200
C225        C  0.18978765  0.50726563  0.24614008    -0.05800
C226        C  0.15497059  0.53120198  0.22987647    -0.05700
C227        C  0.14571891  0.53438548  0.17866986    -0.23900
C228        C  0.17054828  0.51290756  0.14279244     0.18300
C229        C  0.20522035  0.48825043  0.15890692     0.15600
C230        C  0.21493051  0.48606550  0.21019744    -0.18900
C231        C  0.22944056  0.46579113  0.12350803    -0.20700
C232        C  0.21990610  0.46816033  0.07253059    -0.13300
C233        C  0.18618941  0.49336885  0.05561606     0.03400
C234        C  0.16145452  0.51565204  0.09117463    -0.25400
H235        H  0.13475173  0.54732903  0.25682935     0.08500
H236        H  0.11883081  0.55322896  0.16718810     0.12100
H237        H  0.24125712  0.46664790  0.22224011     0.12000
H238        H  0.25601478  0.44658736  0.13520036     0.11800
H239        H  0.23993258  0.45115767  0.04611315     0.12300
H240        H  0.13549465  0.53533574  0.07872023     0.14200
C241        C  0.37301409  0.30973404  0.03103555    -0.05800
C242        C  0.34704944  0.29366759  0.99245226    -0.05700
C243        C  0.32520698  0.32088631  0.96085692    -0.23900
C244        C  0.32928177  0.36470418  0.96690303     0.18300
C245        C  0.35604312  0.38126951  0.00484715     0.15600
C246        C  0.37749885  0.35370897  0.03689890    -0.18900
C247        C  0.36054109  0.42512483  0.01036020    -0.20700
C248        C  0.33793599  0.45231262  0.97937548    -0.13300
C249        C  0.31023516  0.43613739  0.94255353     0.03400
C250        C  0.30647207  0.39219215  0.93616256    -0.25400
H251        H  0.34311580  0.25993038  0.98710260     0.08500
H252        H  0.30494832  0.30765158  0.93187026     0.12100
H253        H  0.39779280  0.36647161  0.06617657     0.12000
H254        H  0.38101004  0.43840294  0.03911355     0.11800
H255        H  0.34107165  0.48606669  0.98538041     0.12300
H256        H  0.28520647  0.37936354  0.90791168     0.14200
C257        C  0.22042319  0.33273993  0.29291878    -0.05800
C258        C  0.21647320  0.33534033  0.24060289    -0.05700
C259        C  0.24143116  0.30997084  0.20888058    -0.23900
C260        C  0.27222889  0.28299718  0.22897315     0.18300
C261        C  0.27556624  0.27926775  0.28163318     0.15600
C262        C  0.24864385  0.30313386  0.31319362    -0.18900
C263        C  0.30836806  0.25483714  0.30187832    -0.20700
C264        C  0.33914620  0.23658711  0.27048248    -0.13300
C265        C  0.33662449  0.24077942  0.21820868     0.03400
C266        C  0.30211016  0.26270036  0.19755915    -0.25400
H267        H  0.19591532  0.35888081  0.22431564     0.08500
H268        H  0.23874854  0.31368606  0.16866626     0.12100
H269        H  0.25314838  0.30229705  0.35349206     0.12000
H270        H  0.31180226  0.25209952  0.34213687     0.11800
H271        H  0.36605845  0.22076741  0.28710728     0.12300
H272        H  0.30094773  0.26747390  0.15736649     0.14200
C273        C  0.91065361  0.46290494  0.86569458    -0.05800
C274        C  0.93620062  0.42811352  0.87745832    -0.05700
C275        C  0.98046131  0.43261597  0.88154719    -0.23900
C276        C  0.00002495  0.47221054  0.87505923     0.18300
C277        C  0.97490742  0.50732817  0.86258075     0.15600
C278        C  0.93064992  0.50233200  0.85726928    -0.18900
C279        C  0.99432615  0.54711565  0.85720110    -0.20700
C280        C  0.03815464  0.55225747  0.86496357    -0.13300
C281        C  0.06358658  0.51765983  0.87789585     0.03400
C282        C  0.04406593  0.47751196  0.88218742    -0.25400
H283        H  0.92187226  0.39762128  0.88451165     0.08500
H284        H  0.99930381  0.40529758  0.89119445     0.12100
H285        H  0.91155245  0.52980862  0.84891389     0.12000
H286        H  0.97545531  0.57447830  0.84779737     0.11800
H287        H  0.05204382  0.58340511  0.86142703     0.12300
H288        H  0.06297911  0.45033109  0.89221861     0.14200
C289        C  0.65651133  0.40322592  0.97096942    -0.05800
C290        C  0.61453657  0.41820786  0.96835011    -0.05700
C291        C  0.58207341  0.39891513  0.99575148    -0.23900
C292        C  0.59114706  0.36459578  0.02663953     0.18300
C293        C  0.63344394  0.34991786  0.03018243     0.15600
C294        C  0.66575472  0.36921250  0.00232673    -0.18900
C295        C  0.64273983  0.31573615  0.06099617    -0.20700
C296        C  0.61037807  0.29585046  0.08761610    -0.13300
C297        C  0.56805730  0.30970780  0.08397870     0.03400
C298        C  0.55864421  0.34436938  0.05353949    -0.25400
H299        H  0.60655283  0.44421051  0.94408654     0.08500
H300        H  0.54988502  0.41057750  0.99244107     0.12100
H301        H  0.69800490  0.35746530  0.00467816     0.12000
H302        H  0.67495192  0.30408305  0.06411026     0.11800
H303        H  0.61850740  0.26903976  0.11054306     0.12300
H304        H  0.52609613  0.35500738  0.04997733     0.14200
C305        C  0.44994496  0.91884713  0.63989982    -0.05800
C306        C  0.41408898  0.94509331  0.63868746    -0.05700
C307        C  0.41859616  0.98910029  0.63845110    -0.23900
C308        C  0.45913456  0.00781586  0.63809987     0.18300
C309        C  0.49553964  0.98200828  0.64022968     0.15600
C310        C  0.49071560  0.93770154  0.64189808    -0.18900
C311        C  0.53604420  0.00098261  0.63883776    -0.20700
C312        C  0.54040805  0.04495787  0.63391382    -0.13300
C313        C  0.50436259  0.07087076  0.63051899     0.03400
C314        C  0.46376671  0.05182461  0.63380294    -0.25400
H315        H  0.38249241  0.93150669  0.63703820     0.08500
H316        H  0.39032367  0.00849096  0.63691736     0.12100
H317        H  0.51874020  0.91787143  0.64209792     0.12000
H318        H  0.56439092  0.98170363  0.64036710     0.11800
H319        H  0.57195250  0.05853845  0.63149440     0.12300
H320        H  0.43547630  0.07116118  0.63158835     0.14200
C321        C  0.28302976  0.36458892  0.48668859    -0.05800
C322        C  0.26784227  0.33925822  0.52581435    -0.05700
C323        C  0.29591088  0.32143157  0.56006046    -0.23900
C324        C  0.33969871  0.32905356  0.55613036     0.18300
C325        C  0.35523631  0.35593822  0.51829273     0.15600
C326        C  0.32685704  0.37333689  0.48356613    -0.18900
C327        C  0.39901665  0.36416722  0.51515843    -0.20700
C328        C  0.42730396  0.34392420  0.54734685    -0.13300
C329        C  0.41230204  0.31508472  0.58304973     0.03400
C330        C  0.36824951  0.30891612  0.58830319    -0.25400
H331        H  0.23417541  0.33262027  0.52949184     0.08500
H332        H  0.28345185  0.30125042  0.58912822     0.12100
H333        H  0.33879515  0.39370095  0.45434166     0.12000
H334        H  0.41147196  0.38506274  0.48680042     0.11800
H335        H  0.46111218  0.34914273  0.54244125     0.12300
H336        H  0.35629460  0.28703908  0.61592534     0.14200
C337        C  0.63939720  0.23830622  0.69619544    -0.05800
C338        C  0.67123091  0.25590863  0.66555231    -0.05700
C339        C  0.70216084  0.28293640  0.68595694    -0.23900
C340        C  0.70204469  0.29252320  0.73744933     0.18300
C341        C  0.67267890  0.27161178  0.76907276     0.15600
C342        C  0.64168376  0.24464380  0.74829355    -0.18900
C343        C  0.67229831  0.28086432  0.82048433    -0.20700
C344        C  0.69807288  0.31299737  0.83976401    -0.13300
C345        C  0.72498222  0.33634550  0.80825436     0.03400
C346        C  0.72814045  0.32498300  0.75728590    -0.25400
H347        H  0.66992256  0.25193840  0.62518266     0.08500
H348        H  0.72450255  0.29829564  0.66103420     0.12100
H349        H  0.61718914  0.23139718  0.77219147     0.12000
H350        H  0.65013607  0.26511964  0.84530629     0.11800
H351        H  0.69458578  0.32189397  0.87892561     0.12300
H352        H  0.74793652  0.34362179  0.73253366     0.14200
C353        C  0.47363711  0.19383240  0.45974432    -0.05800
C354        C  0.44180423  0.22013937  0.44061939    -0.05700
C355        C  0.44154132  0.23034796  0.38982558    -0.23900
C356        C  0.47321730  0.21451901  0.35770323     0.18300
C357        C  0.50422548  0.18660500  0.37630602     0.15600
C358        C  0.50400525  0.17623338  0.42700378    -0.18900
C359        C  0.53548646  0.17010429  0.34410760    -0.20700
C360        C  0.53583064  0.18093570  0.29359349    -0.13300
C361        C  0.50561885  0.20917742  0.27515567     0.03400
C362        C  0.47452364  0.22611705  0.30731410    -0.25400
H363        H  0.41816210  0.23416900  0.46522577     0.08500
H364        H  0.41726297  0.25139904  0.37594321     0.12100
H365        H  0.52866880  0.15579340  0.44127257     0.12000
H366        H  0.55939723  0.14860590  0.35789440     0.11800
H367        H  0.55960910  0.16729709  0.26887096     0.12300
H368        H  0.45057691  0.24723216  0.29272316     0.14200
C369        C  0.48778426  0.19936240  0.96238029    -0.05800
C370        C  0.51818341  0.22772406  0.94351396    -0.05700
C371        C  0.51932293  0.23712211  0.89260848    -0.23900
C372        C  0.49026828  0.21809472  0.85969393     0.18300
C373        C  0.46042912  0.18850317  0.87792366     0.15600
C374        C  0.45927653  0.17943411  0.92920569    -0.18900
C375        C  0.43211596  0.16871173  0.84455329    -0.20700
C376        C  0.43366520  0.17789341  0.79345395    -0.13300
C377        C  0.46280973  0.20771338  0.77538004     0.03400
C378        C  0.49079854  0.22796842  0.80874921    -0.25400
H379        H  0.54027248  0.24376568  0.96836060     0.08500
H380        H  0.54259081  0.25962428  0.87909598     0.12100
H381        H  0.43571805  0.15750186  0.94334475     0.12000
H382        H  0.40915042  0.14584400  0.85786917     0.11800
H383        H  0.41213459  0.16174783  0.76803934     0.12300
H384        H  0.51400259  0.25037450  0.79475982     0.14200
C385        C  0.90306440  0.52317662  0.36393887    -0.05800
C386        C  0.92943517  0.55659693  0.37939631    -0.05700
C387        C  0.97349077  0.55066533  0.38273250    -0.23900
C388        C  0.99163719  0.51116695  0.37094573     0.18300
C389        C  0.96568841  0.47829929  0.35225836     0.15600
C390        C  0.92173734  0.48474532  0.34823651    -0.18900
C391        C  0.98374640  0.43875365  0.34074595    -0.20700
C392        C  0.02683596  0.43104794  0.35020377    -0.13300
C393        C  0.05260328  0.46286150  0.37102439     0.03400
C394        C  0.03484885  0.50334270  0.37976427    -0.25400
H395        H  0.91580057  0.58622820  0.39207728     0.08500
H396        H  0.99309996  0.57630447  0.39688786     0.12100
H397        H  0.90160635  0.45877950  0.33599643     0.12000
H398        H  0.96418830  0.41330602  0.32602583     0.11800
H399        H  0.03966043  0.39993200  0.34259501     0.12300
H400        H  0.05431382  0.52860267  0.39516562     0.14200
C401        C  0.66476867  0.41048094  0.40906310    -0.05800
C402        C  0.66095919  0.37140208  0.38391783    -0.05700
C403        C  0.63903003  0.33771848  0.40617241    -0.23900
C404        C  0.62192319  0.34224091  0.45469611     0.18300
C405        C  0.62552971  0.38179407  0.47962406     0.15600
C406        C  0.64606374  0.41568716  0.45637694    -0.18900
C407        C  0.60987368  0.38671776  0.52830328    -0.20700
C408        C  0.59170920  0.35265847  0.55283334    -0.13300
C409        C  0.58834090  0.31266509  0.52941204     0.03400
C410        C  0.60271259  0.30781003  0.47954366    -0.25400
H411        H  0.67529554  0.36685565  0.34726452     0.08500
H412        H  0.63666594  0.30786838  0.38618789     0.12100
H413        H  0.64952240  0.44554038  0.47626196     0.12000
H414        H  0.61243839  0.41675398  0.54789435     0.11800
H415        H  0.58053585  0.35783615  0.59087242     0.12300
H416        H  0.60026892  0.27733714  0.46093099     0.14200
C417        C  0.78883963  0.48278848  0.53648175    -0.05800
C418        C  0.76781597  0.44724763  0.55551114    -0.05700
C419        C  0.75986186  0.44414261  0.60673647    -0.23900
C420        C  0.77241409  0.47675939  0.63947316     0.18300
C421        C  0.79518667  0.51179363  0.62123197     0.15600
C422        C  0.80378510  0.51430052  0.56983872    -0.18900
C423        C  0.80747300  0.54437796  0.65444708    -0.20700
C424        C  0.79630634  0.54263497  0.70527760    -0.13300
C425        C  0.77269260  0.50832703  0.72322836     0.03400
C426        C  0.76150857  0.47525497  0.69001327    -0.25400
H427        H  0.75596532  0.42267901  0.53062548     0.08500
H428        H  0.74256567  0.41696258  0.62050850     0.12100
H429        H  0.82009102  0.54190936  0.55562435     0.12000
H430        H  0.82514737  0.57140801  0.64098563     0.11800
H431        H  0.80580820  0.56808156  0.73031515     0.12300
H432        H  0.74397817  0.44803285  0.70332112     0.14200
C433        C  0.79920393  0.48886460  0.03884700    -0.05800
C434        C  0.82903605  0.51414018  0.06424107    -0.05700
C435        C  0.82751905  0.51746940  0.11688943    -0.23900
C436        C  0.79593294  0.49589214  0.14422159     0.18300
C437        C  0.76498937  0.47202520  0.11812015     0.15600
C438        C  0.76679249  0.46893443  0.06617567    -0.18900
C439        C  0.73261239  0.45115078  0.14415578    -0.20700
C440        C  0.73057267  0.45392376  0.19609676    -0.13300
C441        C  0.76130292  0.47685743  0.22275054     0.03400
C442        C  0.79422877  0.49770661  0.19691579    -0.25400
H443        H  0.85400803  0.53005850  0.04371381     0.08500
H444        H  0.85121366  0.53639495  0.13620691     0.12100
H445        H  0.74278896  0.45031987  0.04678916     0.12000
H446        H  0.70868548  0.43288945  0.12429168     0.11800
H447        H  0.70495396  0.43806412  0.21562468     0.12300
H448        H  0.81748435  0.51615797  0.21765047     0.14200
C449        C  0.54570980  0.67951076  0.56781906    -0.05800
C450        C  0.52939137  0.64118075  0.54905569    -0.05700
C451        C  0.55549082  0.61341566  0.52174760    -0.23900
C452        C  0.59860465  0.62309424  0.51410024     0.18300
C453        C  0.61545114  0.66096244  0.53465978     0.15600
C454        C  0.58871544  0.68928548  0.56040347    -0.18900
C455        C  0.65876872  0.67005556  0.52892669    -0.20700
C456        C  0.68519386  0.64219835  0.50263779    -0.13300
C457        C  0.66863786  0.60535910  0.48039940     0.03400
C458        C  0.62517542  0.59589927  0.48607192    -0.25400
H459        H  0.49610258  0.63342301  0.55412825     0.08500
H460        H  0.54197850  0.58450386  0.50656508     0.12100
H461        H  0.60134197  0.71883034  0.57500379     0.12000
H462        H  0.67219453  0.69882458  0.54458972     0.11800
H463        H  0.71843477  0.65028290  0.49794920     0.12300
H464        H  0.61223768  0.56750191  0.46885004     0.14200
C465        C  0.51793969  0.92259428  0.12389671    -0.05800
C466        C  0.55389655  0.94850020  0.11886170    -0.05700
C467        C  0.54971966  0.99253878  0.11996247    -0.23900
C468        C  0.50954715  0.01127062  0.12638086     0.18300
C469        C  0.47340970  0.98555739  0.13307087     0.15600
C470        C  0.47787115  0.94149454  0.13193158    -0.18900
C471        C  0.43326149  0.00433116  0.13953043    -0.20700
C472        C  0.42874977  0.04833726  0.13804435    -0.13300
C473        C  0.46431934  0.07420620  0.13006912     0.03400
C474        C  0.50478555  0.05525064  0.12510576    -0.25400
H475        H  0.58493745  0.93475332  0.11234943     0.08500
H476        H  0.57777076  0.01194236  0.11480730     0.12100
H477        H  0.44986307  0.92184653  0.13622413     0.12000
H478        H  0.40523683  0.98492497  0.14479585     0.11800
H479        H  0.39738236  0.06201659  0.14182442     0.12300
H480        H  0.53271790  0.07469488  0.11919574     0.14200
C481        C  0.42127969  0.67797762  0.08718466    -0.05800
C482        C  0.43702971  0.65126234  0.04907308    -0.05700
C483        C  0.40925466  0.62821207  0.01854429    -0.23900
C484        C  0.36526614  0.63107300  0.02607665     0.18300
C485        C  0.34917183  0.65580437  0.06628348     0.15600
C486        C  0.37729507  0.67942794  0.09636996    -0.18900
C487        C  0.30515046  0.65753378  0.07457698    -0.20700
C488        C  0.27726729  0.63637550  0.04211052    -0.13300
C489        C  0.29295517  0.61374990  0.00044646     0.03400
C490        C  0.33709374  0.61053949  0.99324726    -0.25400
H491        H  0.47079233  0.64990216  0.04114405     0.08500
H492        H  0.42212493  0.60908592  0.98818775     0.12100
H493        H  0.36496216  0.69979592  0.12591499     0.12000
H494        H  0.29226036  0.67586956  0.10558440     0.11800
H495        H  0.24337355  0.63880143  0.04866569     0.12300
H496        H  0.34951500  0.59232426  0.96181661     0.14200
C497        C  0.60840233  0.68142079  0.04263743    -0.05800
C498        C  0.63775263  0.65766256  0.06999709    -0.05700
C499        C  0.66294605  0.62755823  0.04616582    -0.23900
C500        C  0.65864286  0.62009247  0.99466600     0.18300
C501        C  0.62838424  0.64281814  0.96670501     0.15600
C502        C  0.60371773  0.67398262  0.99085178    -0.18900
C503        C  0.62353163  0.63377946  0.91529831    -0.20700
C504        C  0.64892886  0.60297094  0.89187462    -0.13300
C505        C  0.67998117  0.58159682  0.91943813     0.03400
C506        C  0.68433643  0.59016680  0.97084067    -0.25400
H507        H  0.64179808  0.66293652  0.10990913     0.08500
H508        H  0.68583050  0.61012490  0.06804111     0.12100
H509        H  0.58068078  0.69191642  0.96976293     0.12000
H510        H  0.60023345  0.65052307  0.89330315     0.11800
H511        H  0.64496000  0.59647471  0.85220483     0.12300
H512        H  0.70763233  0.57309748  0.99260431     0.14200
C513        C  0.64508559  0.75368020  0.20403645    -0.05800
C514        C  0.67696905  0.73572725  0.17341146    -0.05700
C515        C  0.70539449  0.70617576  0.19272380    -0.23900
C516        C  0.70301204  0.69470754  0.24326604     0.18300
C517        C  0.67407021  0.71601478  0.27543724     0.15600
C518        C  0.64517744  0.74513891  0.25560666    -0.18900
C519        C  0.67246922  0.70570788  0.32631583    -0.20700
C520        C  0.69740296  0.67298100  0.34457200    -0.13300
C521        C  0.72360146  0.64930162  0.31217132     0.03400
C522        C  0.72708950  0.66076037  0.26162085    -0.25400
H523        H  0.67743044  0.74141596  0.13342831     0.08500
H524        H  0.72768643  0.69070295  0.16755053     0.12100
H525        H  0.62074549  0.75871659  0.27955399     0.12000
H526        H  0.65071862  0.72181328  0.35159896     0.11800
H527        H  0.69395263  0.66419238  0.38354618     0.12300
H528        H  0.74709486  0.64237507  0.23647494     0.14200
C529        C  0.48538145  0.79410477  0.95893047    -0.05800
C530        C  0.44744356  0.77470419  0.94319900    -0.05700
C531        C  0.44111005  0.76452766  0.89302885    -0.23900
C532        C  0.47255735  0.77363451  0.85760570     0.18300
C533        C  0.51045792  0.79418589  0.87231169     0.15600
C534        C  0.51667328  0.80443518  0.92314484    -0.18900
C535        C  0.54140524  0.80354407  0.83590563    -0.20700
C536        C  0.53454391  0.79278406  0.78540004    -0.13300
C537        C  0.49690161  0.77208723  0.77094472     0.03400
C538        C  0.46631570  0.76246380  0.80757735    -0.25400
H539        H  0.42288836  0.76638192  0.96990879     0.08500
H540        H  0.41178081  0.74901423  0.88202899     0.12100
H541        H  0.54614845  0.81924659  0.93491872     0.12000
H542        H  0.57065613  0.81940029  0.84641089     0.11800
H543        H  0.55837327  0.80092700  0.75773742     0.12300
H544        H  0.43682655  0.74693757  0.79714390     0.14200
C545        C  0.45998275  0.79531789  0.27225934    -0.05800
C546        C  0.41795377  0.79104371  0.28870588    -0.05700
C547        C  0.40803182  0.79709662  0.33930514    -0.23900
C548        C  0.44019963  0.80730995  0.37374248     0.18300
C549        C  0.48243827  0.81298416  0.35688069     0.15600
C550        C  0.49204536  0.80699284  0.30601691    -0.18900
C551        C  0.51452543  0.82297917  0.39144623    -0.20700
C552        C  0.50524773  0.82519453  0.44269050    -0.13300
C553        C  0.46371583  0.81769526  0.45995876     0.03400
C554        C  0.43110466  0.81011581  0.42498863    -0.25400
H555        H  0.39312685  0.78200686  0.26262123     0.08500
H556        H  0.37550763  0.79271449  0.35170179     0.12100
H557        H  0.52452816  0.81020358  0.29282804     0.12000
H558        H  0.54700084  0.82764291  0.37902874     0.11800
H559        H  0.53088123  0.83107574  0.46888273     0.12300
H560        H  0.39885271  0.80447710  0.43772720     0.14200
loop_ 
_geom_bond_atom_site_label_1 
_geom_bond_atom_site_label_2 
_geom_bond_distance 
_geom_bond_site_symmetry_2 
_ccdc_geom_bond_type 
O1          Cr19   1.965       .  S
O1            C9   1.258       .  A
O2          Cr19   1.989       .  S
O2            C3   1.264       .  A
C3            O4   1.268       .  A
C3          C465   1.482       .  S
O4          Cr20   2.000       .  S
O5          Cr20   2.022       .  S
O5            C6   1.269       .  A
C6            O7   1.259       .  A
C6          C513   1.481       .  S
O7          Cr21   1.972       .  S
O8          Cr21   2.005       .  S
O8            C9   1.266       .  A
C9          C545   1.455       .  S
O10         Cr19   2.008       .  S
O10          C18   1.262       .  A
O11         Cr19   1.960       .  S
O11          C12   1.260       .  A
C12          O13   1.267       .  A
C12         C529   1.472   1_554  S
O13         Cr20   2.007       .  S
O14         Cr20   1.986       .  S
O14          C15   1.261       .  A
C15          O16   1.264       .  A
C15         C497   1.469       .  S
O16         Cr21   1.994       .  S
O17         Cr21   1.977       .  S
O17          C18   1.257       .  A
C18         C481   1.475       .  S
Cr19         O22   1.767       .  S
Cr20         O22   1.772       .  S
Cr21         O22   1.763       .  S
O23         Cr41   1.973       .  S
O23          C31   1.261       .  A
O24         Cr41   1.979       .  S
O24          C25   1.259       .  A
C25          O26   1.267       .  A
C25         C385   1.481       .  S
O26         Cr42   2.008       .  S
O27         Cr42   2.004       .  S
O27          C28   1.265       .  A
C28          O29   1.260       .  A
C28         C521   1.471       .  S
O29         Cr43   1.981       .  S
O30         Cr43   2.007       .  S
O30          C31   1.269       .  A
C31         C441   1.462       .  S
O32         Cr41   2.010       .  S
O32          C40   1.259       .  A
O33         Cr41   1.979       .  S
O33          C34   1.267       .  A
C34          O35   1.267       .  A
C34         C417   1.472       .  S
O35         Cr42   1.999       .  S
O36         Cr42   1.984       .  S
O36          C37   1.263       .  A
C37          O38   1.264       .  A
C37         C457   1.475       .  S
O38         Cr43   2.001       .  S
O39         Cr43   1.986       .  S
O39          C40   1.258       .  A
C40         C401   1.476       .  S
Cr41         O44   1.771       .  S
Cr42         O44   1.772       .  S
Cr43         O44   1.766       .  S
O45         Cr63   1.997       .  S
O45          C53   1.266       .  A
O46         Cr63   1.976       .  S
O46          C47   1.261       .  A
C47          O48   1.269       .  A
C47         C337   1.482       .  S
O48         Cr64   2.024       .  S
O49         Cr64   2.015       .  S
O49          C50   1.273       .  A
C50          O51   1.266       .  A
C50         C313   1.496       .  S
O51         Cr65   1.998       .  S
O52         Cr65   1.970       .  S
O52          C53   1.261       .  A
C53         C377   1.467       .  S
O54         Cr63   1.985       .  S
O54          C62   1.258       .  A
O55         Cr63   1.982       .  S
O55          C56   1.262       .  A
C56          O57   1.267       .  A
C56         C409   1.487       .  S
O57         Cr64   2.014       .  S
O58         Cr64   1.995       .  S
O58          C59   1.265       .  A
C59          O60   1.261       .  A
C59         C353   1.470       .  S
O60         Cr65   1.975       .  S
O61         Cr65   2.004       .  S
O61          C62   1.262       .  A
C62         C329   1.480       .  S
Cr63         O66   1.760       .  S
Cr64         O66   1.771       .  S
Cr65         O66   1.771       .  S
O67         Cr85   1.924       .  S
O67          C75   1.257       .  A
O68         Cr85   1.993       .  S
O68          C69   1.261       .  A
C69          O70   1.265       .  A
C69         C345   1.474       .  S
O70         Cr86   2.002       .  S
O71         Cr86   2.038       .  S
O71          C72   1.272       .  A
C72          O73   1.254       .  A
C72         C273   1.495       .  S
O73         Cr87   1.957       .  S
O74         Cr87   2.035       .  S
O74          C75   1.277       .  A
C75         C425   1.474       .  S
O76         Cr85   2.008       .  S
O76          C84   1.255       .  A
O77         Cr85   1.963       .  S
O77          C78   1.263       .  A
C78          O79   1.276       .  A
C78         C289   1.475       .  S
O79         Cr86   2.028       .  S
O80         Cr86   1.933       .  S
O80          C81   1.254       .  A
C81          O82   1.268       .  A
C81         C433   1.473   1_556  S
O82         Cr87   2.024       .  S
O83         Cr87   1.961       .  S
O83          C84   1.249       .  A
C84         C505   1.472       .  S
Cr85         O88   1.777       .  S
Cr86         O88   1.771       .  S
Cr87         O88   1.776       .  S
O89        Cr107   1.959       .  S
O89          C97   1.264       .  A
O90        Cr107   1.976       .  S
O90          C91   1.256       .  A
C91          O92   1.266       .  A
C91         C473   1.485       .  S
O92        Cr108   2.013       .  S
O93        Cr108   2.025       .  S
O93          C94   1.270       .  A
C94          O95   1.258       .  A
C94         C265   1.478       .  S
O95        Cr109   1.969       .  S
O96        Cr109   2.010       .  S
O96          C97   1.273       .  A
C97         C361   1.460       .  S
O98        Cr107   1.983       .  S
O98         C106   1.253       .  A
O99        Cr107   1.963       .  S
O99         C100   1.265       .  A
C100        O101   1.274       .  A
C100        C369   1.473   1_554  S
O101       Cr108   2.016       .  S
O102       Cr108   1.972       .  S
O102        C103   1.259       .  A
C103        O104   1.264       .  A
C103        C241   1.478       .  S
O104       Cr109   1.996       .  S
O105       Cr109   1.995       .  S
O105        C106   1.256       .  A
C106        C297   1.476       .  S
Cr107       O110   1.774       .  S
Cr108       O110   1.771       .  S
Cr109       O110   1.767       .  S
O111       Cr129   1.980       .  S
O111        C119   1.266       .  A
O112       Cr129   1.981       .  S
O112        C113   1.259       .  A
C113        O114   1.271       .  A
C113        C393   1.489       .  S
O114       Cr130   2.020       .  S
O115       Cr130   2.031       .  S
O115        C116   1.268       .  A
C116        O117   1.253       .  A
C116        C257   1.475       .  S
O117       Cr131   1.962       .  S
O118       Cr131   2.015       .  S
O118        C119   1.273       .  A
C119        C225   1.484       .  S
O120       Cr129   1.988       .  S
O120        C128   1.257       .  A
O121       Cr129   1.982       .  S
O121        C122   1.267       .  A
C122        O123   1.271       .  A
C122        C209   1.481       .  S
O123       Cr130   2.017       .  S
O124       Cr130   1.976       .  S
O124        C125   1.262       .  A
C125        O126   1.268       .  A
C125        C321   1.480       .  S
O126       Cr131   2.007       .  S
O127       Cr131   1.982       .  S
O127        C128   1.253       .  A
C128        C201   1.475       .  S
Cr129       O132   1.765       .  S
Cr130       O132   1.771       .  S
Cr131       O132   1.763       .  S
O133       Cr151   2.004       .  S
O133        C141   1.269       .  A
O134       Cr151   1.977       .  S
O134        C135   1.260       .  A
C135        O136   1.271       .  A
C135        C177   1.481       .  S
O136       Cr152   2.031       .  S
O137       Cr152   2.011       .  S
O137        C138   1.270       .  A
C138        O139   1.264       .  A
C138        C281   1.496       .  S
O139       Cr153   1.998       .  S
O140       Cr153   1.989       .  S
O140        C141   1.266       .  A
C141        C217   1.483       .  S
O142       Cr151   1.978       .  S
O142        C150   1.256       .  A
O143       Cr151   1.996       .  S
O143        C144   1.263       .  A
C144        O145   1.260       .  A
C144        C489   1.476   1_556  S
O145       Cr152   1.982       .  S
O146       Cr152   2.018       .  S
O146        C147   1.271   1_556  A
C147        O148   1.263   1_554  A
C147        C233   1.486       .  S
O148       Cr153   1.977       .  S
O149       Cr153   2.004       .  S
O149        C150   1.262       .  A
C150        C249   1.478       .  S
Cr151       O154   1.766       .  S
Cr152       O154   1.773       .  S
Cr153       O154   1.772       .  S
O155       Cr173   1.941       .  S
O155        C163   1.259       .  A
O156       Cr173   1.992       .  S
O156        C157   1.261       .  A
C157        O158   1.265       .  A
C157        C185   1.473       .  S
O158       Cr174   2.001       .  S
O159       Cr174   2.023       .  S
O159        C160   1.269       .  A
C160        O161   1.257       .  A
C160        C305   1.490       .  S
O161       Cr175   1.972       .  S
O162       Cr175   2.022       .  S
O162        C163   1.271       .  A
C163        C537   1.476       .  S
O164       Cr173   1.998       .  S
O164        C172   1.258       .  A
O165       Cr173   1.964       .  S
O165        C166   1.260       .  A
C166        O167   1.271       .  A
C166        C193   1.475       .  S
O167       Cr174   2.016       .  S
O168       Cr174   1.955       .  S
O168        C169   1.258       .  A
C169        O170   1.267       .  A
C169        C553   1.476       .  S
O170       Cr175   2.008       .  S
O171       Cr175   1.976       .  S
O171        C172   1.254       .  A
C172        C449   1.473       .  S
Cr173       O176   1.774       .  S
Cr174       O176   1.776       .  S
Cr175       O176   1.783       .  S
C177        C178   1.406       .  A
C177        C182   1.406       .  A
C178        C179   1.399       .  A
C178        H187   1.083       .  S
C179        C180   1.401       .  A
C179        H188   1.084       .  S
C180        C186   1.411       .  A
C180        C181   1.417       .  A
C181        C183   1.401       .  A
C181        C182   1.411       .  A
C182        H189   1.085       .  S
C183        C184   1.398       .  A
C183        H190   1.084       .  S
C184        C185   1.406       .  A
C184        H191   1.084       .  S
C185        C186   1.404       .  A
C186        H192   1.085       .  S
C193        C194   1.404       .  A
C193        C198   1.409       .  A
C194        C195   1.391       .  A
C194        H203   1.083       .  S
C195        C196   1.399       .  A
C195        H204   1.083       .  S
C196        C202   1.395       .  A
C196        C197   1.412       .  A
C197        C199   1.405       .  A
C197        C198   1.403       .  A
C198        H205   1.084       .  S
C199        C200   1.400       .  A
C199        H206   1.083       .  S
C200        C201   1.406       .  A
C200        H207   1.083       .  S
C201        C202   1.404       .  A
C202        H208   1.084       .  S
C209        C210   1.407       .  A
C209        C214   1.404       .  A
C210        C211   1.401       .  A
C210        H219   1.083       .  S
C211        C212   1.404       .  A
C211        H220   1.084       .  S
C212        C218   1.409       .  A
C212        C213   1.414       .  A
C213        C215   1.399       .  A
C213        C214   1.402       .  A
C214        H221   1.085       .  S
C215        C216   1.393       .  A
C215        H222   1.084       .  S
C216        C217   1.408       .  A
C216        H223   1.083       .  S
C217        C218   1.408       .  A
C218        H224   1.084       .  S
C225        C226   1.406       .  A
C225        C230   1.407       .  A
C226        C227   1.402       .  A
C226        H235   1.083       .  S
C227        C228   1.404       .  A
C227        H236   1.083       .  S
C228        C234   1.410       .  A
C228        C229   1.414       .  A
C229        C231   1.400       .  A
C229        C230   1.405       .  A
C230        H237   1.084       .  S
C231        C232   1.396       .  A
C231        H238   1.084       .  S
C232        C233   1.408       .  A
C232        H239   1.083       .  S
C233        C234   1.409       .  A
C234        H240   1.084       .  S
C241        C242   1.406   1_554  A
C241        C246   1.406       .  A
C242        C243   1.396       .  A
C242        H251   1.083       .  S
C243        C244   1.401       .  A
C243        H252   1.084       .  S
C244        C250   1.403       .  A
C244        C245   1.414   1_556  A
C245        C247   1.402       .  A
C245        C246   1.404       .  A
C246        H253   1.084       .  S
C247        C248   1.397   1_554  A
C247        H254   1.084       .  S
C248        C249   1.406       .  A
C248        H255   1.083       .  S
C249        C250   1.405       .  A
C250        H256   1.084       .  S
C257        C258   1.404       .  A
C257        C262   1.406       .  A
C258        C259   1.401       .  A
C258        H267   1.084       .  S
C259        C260   1.405       .  A
C259        H268   1.084       .  S
C260        C266   1.409       .  A
C260        C261   1.415       .  A
C261        C263   1.404       .  A
C261        C262   1.408       .  A
C262        H269   1.085       .  S
C263        C264   1.400       .  A
C263        H270   1.084       .  S
C264        C265   1.404       .  A
C264        H271   1.084       .  S
C265        C266   1.407       .  A
C266        H272   1.085       .  S
C273        C274   1.404       .  A
C273        C278   1.416       .  A
C274        C275   1.404       .  A
C274        H283   1.083       .  S
C275        C276   1.407   1_655  A
C275        H284   1.084       .  S
C276        C282   1.409       .  A
C276        C277   1.409   1_455  A
C277        C279   1.407       .  A
C277        C278   1.409       .  A
C278        H285   1.084       .  S
C279        C280   1.404   1_655  A
C279        H286   1.084       .  S
C280        C281   1.405       .  A
C280        H287   1.083       .  S
C281        C282   1.416       .  A
C282        H288   1.084       .  S
C289        C290   1.407       .  A
C289        C294   1.402   1_556  A
C290        C291   1.397       .  A
C290        H299   1.083       .  S
C291        C292   1.401   1_556  A
C291        H300   1.083       .  S
C292        C298   1.405       .  A
C292        C293   1.415       .  A
C293        C295   1.398       .  A
C293        C294   1.400       .  A
C294        H301   1.084       .  S
C295        C296   1.393       .  A
C295        H302   1.083       .  S
C296        C297   1.407       .  A
C296        H303   1.083       .  S
C297        C298   1.405       .  A
C298        H304   1.084       .  S
C305        C306   1.404       .  A
C305        C310   1.415       .  A
C306        C307   1.400       .  A
C306        H315   1.083       .  S
C307        C308   1.405   1_565  A
C307        H316   1.083   1_565  S
C308        C314   1.407       .  A
C308        C309   1.411   1_545  A
C309        C311   1.408   1_565  A
C309        C310   1.412       .  A
C310        H317   1.084       .  S
C311        C312   1.406       .  A
C311        H318   1.083   1_545  S
C312        C313   1.405       .  A
C312        H319   1.083       .  S
C313        C314   1.414       .  A
C314        H320   1.084       .  S
C321        C322   1.405       .  A
C321        C326   1.408       .  A
C322        C323   1.397       .  A
C322        H331   1.084       .  S
C323        C324   1.402       .  A
C323        H332   1.082       .  S
C324        C330   1.403       .  A
C324        C325   1.413       .  A
C325        C327   1.404       .  A
C325        C326   1.406       .  A
C326        H333   1.083       .  S
C327        C328   1.400       .  A
C327        H334   1.082       .  S
C328        C329   1.406       .  A
C328        H335   1.084       .  S
C329        C330   1.406       .  A
C330        H336   1.083       .  S
C337        C338   1.408       .  A
C337        C342   1.403       .  A
C338        C339   1.402       .  A
C338        H347   1.083       .  S
C339        C340   1.403       .  A
C339        H348   1.084       .  S
C340        C346   1.413       .  A
C340        C341   1.417       .  A
C341        C343   1.399       .  A
C341        C342   1.406       .  A
C342        H349   1.085       .  S
C343        C344   1.394       .  A
C343        H350   1.084       .  S
C344        C345   1.405       .  A
C344        H351   1.084       .  S
C345        C346   1.405       .  A
C346        H352   1.084       .  S
C353        C354   1.405       .  A
C353        C358   1.405       .  A
C354        C355   1.396       .  A
C354        H363   1.083       .  S
C355        C356   1.402       .  A
C355        H364   1.084       .  S
C356        C362   1.397       .  A
C356        C357   1.413       .  A
C357        C359   1.402       .  A
C357        C358   1.395       .  A
C358        H365   1.084       .  S
C359        C360   1.394       .  A
C359        H366   1.084       .  S
C360        C361   1.401       .  A
C360        H367   1.083       .  S
C361        C362   1.403       .  A
C362        H368   1.085       .  S
C369        C370   1.406       .  A
C369        C374   1.405       .  A
C370        C371   1.393       .  A
C370        H379   1.083       .  S
C371        C372   1.400       .  A
C371        H380   1.084       .  S
C372        C378   1.397       .  A
C372        C373   1.414       .  A
C373        C375   1.403       .  A
C373        C374   1.401       .  A
C374        H381   1.084       .  S
C375        C376   1.397       .  A
C375        H382   1.083       .  S
C376        C377   1.403       .  A
C376        H383   1.083       .  S
C377        C378   1.403       .  A
C378        H384   1.085       .  S
C385        C386   1.402       .  A
C385        C390   1.412       .  A
C386        C387   1.403       .  A
C386        H395   1.083       .  S
C387        C388   1.408       .  A
C387        H396   1.084       .  S
C388        C394   1.404   1_655  A
C388        C389   1.409       .  A
C389        C391   1.407       .  A
C389        C390   1.403       .  A
C390        H397   1.085       .  S
C391        C392   1.402   1_655  A
C391        H398   1.084       .  S
C392        C393   1.402       .  A
C392        H399   1.083       .  S
C393        C394   1.416       .  A
C394        H400   1.084       .  S
C401        C402   1.406       .  A
C401        C406   1.399       .  A
C402        C403   1.405       .  A
C402        H411   1.083       .  S
C403        C404   1.406       .  A
C403        H412   1.082       .  S
C404        C410   1.415       .  A
C404        C405   1.416       .  A
C405        C407   1.394       .  A
C405        C406   1.401       .  A
C406        H413   1.084       .  S
C407        C408   1.388       .  A
C407        H414   1.083       .  S
C408        C409   1.410       .  A
C408        H415   1.083       .  S
C409        C410   1.410       .  A
C410        H416   1.083       .  S
C417        C418   1.403       .  A
C417        C422   1.410       .  A
C418        C419   1.392       .  A
C418        H427   1.083       .  S
C419        C420   1.402       .  A
C419        H428   1.084       .  S
C420        C426   1.391       .  A
C420        C421   1.409       .  A
C421        C423   1.407       .  A
C421        C422   1.399       .  A
C422        H429   1.084       .  S
C423        C424   1.401       .  A
C423        H430   1.083       .  S
C424        C425   1.402       .  A
C424        H431   1.083       .  S
C425        C426   1.409       .  A
C426        H432   1.085       .  S
C433        C434   1.403       .  A
C433        C438   1.404       .  A
C434        C435   1.407       .  A
C434        H443   1.083       .  S
C435        C436   1.410       .  A
C435        H444   1.083       .  S
C436        C442   1.406       .  A
C436        C437   1.412       .  A
C437        C439   1.400       .  A
C437        C438   1.388       .  A
C438        H445   1.086       .  S
C439        C440   1.388       .  A
C439        H446   1.084       .  S
C440        C441   1.399       .  A
C440        H447   1.084       .  S
C441        C442   1.409       .  A
C442        H448   1.084       .  S
C449        C450   1.404       .  A
C449        C454   1.401       .  A
C450        C451   1.401       .  A
C450        H459   1.084       .  S
C451        C452   1.405       .  A
C451        H460   1.083       .  S
C452        C458   1.409       .  A
C452        C453   1.415       .  A
C453        C455   1.401       .  A
C453        C454   1.404       .  A
C454        H461   1.084       .  S
C455        C456   1.396       .  A
C455        H462   1.083       .  S
C456        C457   1.403       .  A
C456        H463   1.083       .  S
C457        C458   1.407       .  A
C458        H464   1.084       .  S
C465        C466   1.403       .  A
C465        C470   1.412       .  A
C466        C467   1.401       .  A
C466        H475   1.083       .  S
C467        C468   1.407   1_565  A
C467        H476   1.083   1_565  S
C468        C474   1.402       .  A
C468        C469   1.409   1_545  A
C469        C471   1.407   1_565  A
C469        C470   1.403       .  A
C470        H477   1.084       .  S
C471        C472   1.402       .  A
C471        H478   1.083   1_545  S
C472        C473   1.402       .  A
C472        H479   1.083       .  S
C473        C474   1.414       .  A
C474        H480   1.084       .  S
C481        C482   1.405       .  A
C481        C486   1.406       .  A
C482        C483   1.395       .  A
C482        H491   1.083       .  S
C483        C484   1.401       .  A
C483        H492   1.084   1_554  S
C484        C490   1.402   1_554  A
C484        C485   1.414       .  A
C485        C487   1.403       .  A
C485        C486   1.405       .  A
C486        H493   1.084       .  S
C487        C488   1.399       .  A
C487        H494   1.083       .  S
C488        C489   1.404       .  A
C488        H495   1.083       .  S
C489        C490   1.405   1_554  A
C490        H496   1.085       .  S
C497        C498   1.404       .  A
C497        C502   1.406   1_554  A
C498        C499   1.389       .  A
C498        H507   1.083       .  S
C499        C500   1.398   1_554  A
C499        H508   1.084       .  S
C500        C506   1.394       .  A
C500        C501   1.414       .  A
C501        C503   1.406       .  A
C501        C502   1.406       .  A
C502        H509   1.084       .  S
C503        C504   1.403       .  A
C503        H510   1.084       .  S
C504        C505   1.404       .  A
C504        H511   1.083       .  S
C505        C506   1.401       .  A
C506        H512   1.085       .  S
C513        C514   1.409       .  A
C513        C518   1.404       .  A
C514        C515   1.400       .  A
C514        H523   1.083       .  S
C515        C516   1.401       .  A
C515        H524   1.084       .  S
C516        C522   1.410       .  A
C516        C517   1.416       .  A
C517        C519   1.400       .  A
C517        C518   1.405       .  A
C518        H525   1.085       .  S
C519        C520   1.394       .  A
C519        H526   1.084       .  S
C520        C521   1.405       .  A
C520        H527   1.084       .  S
C521        C522   1.404       .  A
C522        H528   1.084       .  S
C529        C530   1.404       .  A
C529        C534   1.409       .  A
C530        C531   1.387       .  A
C530        H539   1.083       .  S
C531        C532   1.398       .  A
C531        H540   1.084       .  S
C532        C538   1.391       .  A
C532        C533   1.412       .  A
C533        C535   1.406       .  A
C533        C534   1.404       .  A
C534        H541   1.084       .  S
C535        C536   1.403       .  A
C535        H542   1.083       .  S
C536        C537   1.405       .  A
C536        H543   1.083       .  S
C537        C538   1.404       .  A
C538        H544   1.085       .  S
C545        C546   1.399       .  A
C545        C550   1.400       .  A
C546        C547   1.395       .  A
C546        H555   1.083       .  S
C547        C548   1.404       .  A
C547        H556   1.084       .  S
C548        C554   1.397       .  A
C548        C549   1.413       .  A
C549        C551   1.402       .  A
C549        C550   1.400       .  A
C550        H557   1.085       .  S
C551        C552   1.397       .  A
C551        H558   1.083       .  S
C552        C553   1.405       .  A
C552        H559   1.083       .  S
C553        C554   1.407       .  A
C554        H560   1.084       .  S
