geometry optimzed in LAMMPS
_audit_creation_date              2020-12-01 
_audit_creation_method            'lammps2cif' 
_symmetry_space_group_name_H-M    'P1' 
_symmetry_Int_Tables_number       1 
_symmetry_cell_setting            triclinic 
loop_ 
_symmetry_equiv_pos_as_xyz 
  x,y,z 
_cell_length_a                    55.79438766 
_cell_length_b                    55.777740300836435 
_cell_length_c                    45.849248106255615 
_cell_angle_alpha                 90.02654195816002 
_cell_angle_beta                  90.09796545323184 
_cell_angle_gamma                 120.1065115812369 
loop_ 
_atom_site_label 
_atom_site_type_symbol 
_atom_site_fract_x 
_atom_site_fract_y 
_atom_site_fract_z 
_atom_site_charge 
Fe1        Fe  0.31562942  0.88246250  0.24243019     1.65800
Fe2        Fe  0.37823082  0.89465774  0.21994883     1.73200
Fe3        Fe  0.34200295  0.84390496  0.26776170     1.54400
O4          O  0.31822399  0.84928451  0.29926484    -0.83100
O5          O  0.37338813  0.85919670  0.20093868    -0.81500
O6          O  0.31868641  0.88799267  0.28702200    -0.85700
O7          O  0.28480956  0.84025576  0.24544942    -0.80500
O8          O  0.37701253  0.87108540  0.29033854    -0.82300
O9          O  0.35653593  0.89826714  0.18498114    -0.85000
C10         C  0.28487926  0.81743115  0.24274515     0.95700
C11         C  0.31740657  0.87093304  0.30606206     1.03200
O12         O  0.34526893  0.87378732  0.24319187    -1.14000
O13         O  0.38508125  0.93138622  0.23691213    -0.76400
O14         O  0.34259780  0.92560327  0.23898343    -0.79900
O15         O  0.30682980  0.81608095  0.24591186    -0.80600
C16         C  0.36892407  0.94107962  0.23948014     0.94600
O17         O  0.31196462  0.87778784  0.19775602    -0.78600
O18         O  0.40416155  0.89337285  0.25242963    -0.83800
C19         C  0.37562681  0.84091114  0.21497720     0.97300
C20         C  0.40083400  0.88571048  0.27908763     1.03200
O21         O  0.36637930  0.83422301  0.24082777    -0.79400
C22         C  0.33097427  0.88764856  0.17865881     1.01500
Fe23       Fe  0.31777868  0.88376286  0.49266653     1.65800
Fe24       Fe  0.37987219  0.89470082  0.46994234     1.73200
Fe25       Fe  0.34244083  0.84435769  0.01812539     1.54400
O26         O  0.31888165  0.85022527  0.04947704    -0.83100
O27         O  0.37409474  0.85881327  0.45111918    -0.81500
O28         O  0.31987124  0.88916934  0.03701758    -0.85700
O29         O  0.28657664  0.84175040  0.49586901    -0.80500
O30         O  0.37759322  0.87117108  0.04070009    -0.82300
O31         O  0.35833534  0.89866804  0.43488965    -0.85000
C32         C  0.28649613  0.81885455  0.49318196     0.95700
C33         C  0.31802228  0.87189371  0.05606777     1.03200
O34         O  0.34703464  0.87453151  0.49348624    -1.14000
O35         O  0.38737502  0.93152668  0.48710442    -0.76400
O36         O  0.34533871  0.92679648  0.48932788    -0.79900
O37         O  0.30731503  0.81708605  0.99615659    -0.80600
C38         C  0.37126074  0.94144165  0.99150258     0.94600
O39         O  0.31392738  0.87886185  0.44800749    -0.78600
O40         O  0.40482295  0.89235428  0.00253481    -0.83800
C41         C  0.37609344  0.84048939  0.46536204     0.97300
C42         C  0.40145828  0.88512531  0.02934050     1.03200
O43         O  0.36724554  0.83434630  0.49137979    -0.79400
C44         C  0.33275337  0.88820044  0.42871969     1.01500
Fe45       Fe  0.43454982  0.11763259  0.01322388     1.65800
Fe46       Fe  0.48612651  0.10719649  0.03590908     1.73200
Fe47       Fe  0.49917928  0.15725667  0.48808899     1.54400
O48         O  0.46976461  0.15131093  0.45668281    -0.83100
O49         O  0.51652455  0.14301137  0.05476427    -0.81500
O50         O  0.43220738  0.11180763  0.46841577    -0.85700
O51         O  0.44495528  0.15959857  0.01000061    -0.80500
O52         O  0.50743768  0.13058128  0.46552291    -0.82300
O53         O  0.46091189  0.10338188  0.07117565    -0.85000
C54         C  0.46759366  0.18274674  0.01282878     0.95700
C55         C  0.44792370  0.12911421  0.44951199     1.03200
O56         O  0.47320476  0.12737642  0.01272996    -1.14000
O57         O  0.45666801  0.07022633  0.01888323    -0.76400
O58         O  0.41922035  0.07462518  0.01651146    -0.79900
O59         O  0.49117002  0.18460825  0.01041199    -0.80600
C60         C  0.43078274  0.05985616  0.01541929     0.94600
O61         O  0.43559152  0.12242299  0.05788603    -0.78600
O62         O  0.51309297  0.10862384  0.50323630    -0.83800
C63         C  0.53668203  0.16163089  0.04058582     0.97300
C64         C  0.51693540  0.11613098  0.47650330     1.03200
O65         O  0.53368309  0.16810180  0.01481651    -0.79400
C66         C  0.44552386  0.11354095  0.07723185     1.01500
Fe67       Fe  0.43292365  0.11712264  0.26320426     1.65800
Fe68       Fe  0.48361220  0.10456657  0.28327018     1.73200
Fe69       Fe  0.49776494  0.15740787  0.23841683     1.54400
O70         O  0.46828237  0.15214269  0.20724297    -0.83100
O71         O  0.51443985  0.13911789  0.30371699    -0.81500
O72         O  0.43035974  0.11258578  0.21853762    -0.85700
O73         O  0.44336575  0.15897342  0.26083133    -0.80500
O74         O  0.50677353  0.13201171  0.21414450    -0.82300
O75         O  0.45823060  0.09942966  0.31901769    -0.85000
C76         C  0.46596629  0.18197110  0.26407680     0.95700
C77         C  0.44615493  0.13024293  0.19991090     1.03200
O78         O  0.47144095  0.12635820  0.26185649    -1.14000
O79         O  0.45391029  0.06892774  0.26390718    -0.76400
O80         O  0.41688132  0.07401500  0.26555197    -0.79900
O81         O  0.48950545  0.18374950  0.26175424    -0.80600
C82         C  0.42803275  0.05917907  0.26137349     0.94600
O83         O  0.43497297  0.12119454  0.30791574    -0.78600
O84         O  0.51080420  0.10734869  0.25012715    -0.83800
C85         C  0.53450855  0.15900656  0.29059203     0.97300
C86         C  0.51542550  0.11641125  0.22395891     1.03200
O87         O  0.53172232  0.16689977  0.26541335    -0.79400
C88         C  0.44436813  0.11096882  0.32636749     1.01500
Fe89       Fe  0.68502478  0.11756938  0.11927652     1.65800
Fe90       Fe  0.62323760  0.10651875  0.09513869     1.73200
Fe91       Fe  0.65833226  0.15579574  0.14467076     1.54400
O92         O  0.68089380  0.14930050  0.17676523    -0.83100
O93         O  0.62935858  0.14254185  0.07641416    -0.81500
O94         O  0.68137192  0.11120367  0.16363727    -0.85700
O95         O  0.71598780  0.15950125  0.12355092    -0.80500
O96         O  0.62243585  0.12830840  0.16574352    -0.82300
O97         O  0.64543807  0.10264685  0.06081554    -0.85000
C98         C  0.71595051  0.18232122  0.12088203     0.95700
C99         C  0.68244443  0.12793069  0.18297499     1.03200
O100        O  0.65556859  0.12652796  0.11958263    -1.14000
O101        O  0.61565064  0.06983431  0.11262554    -0.76400
O102        O  0.65771673  0.07459785  0.11495518    -0.79900
O103        O  0.69409583  0.18378869  0.12413519    -0.80600
C104        C  0.63136579  0.05975332  0.11637692     0.94600
O105        O  0.68968446  0.12338630  0.07487048    -0.78600
O106        O  0.59651150  0.10799971  0.12639382    -0.83800
C107        C  0.62708076  0.16073509  0.09066168     0.97300
C108        C  0.59898934  0.11475188  0.15330315     1.03200
O109        O  0.63530291  0.16651106  0.11697437    -0.79400
C110        C  0.67116662  0.11390628  0.05521788     1.01500
Fe111      Fe  0.68509701  0.11764080  0.36930076     1.65800
Fe112      Fe  0.62285995  0.10637191  0.34611632     1.73200
Fe113      Fe  0.65958860  0.15722881  0.39373195     1.54400
O114        O  0.68334398  0.15207281  0.42545512    -0.83100
O115        O  0.62819968  0.14195400  0.32685053    -0.81500
O116        O  0.68234141  0.11296489  0.41398701    -0.85700
O117        O  0.71632804  0.15973908  0.37167712    -0.80500
O118        O  0.62448249  0.13056557  0.41645228    -0.82300
O119        O  0.64421059  0.10207294  0.31132167    -0.85000
C120        C  0.71640686  0.18257005  0.36826040     0.95700
C121        C  0.68408722  0.13049603  0.43270581     1.03200
O122        O  0.65585293  0.12692359  0.36953739    -1.14000
O123        O  0.61550855  0.06965888  0.36344340    -0.76400
O124        O  0.65759867  0.07458489  0.36654348    -0.79900
O125        O  0.69465543  0.18426601  0.37143624    -0.80600
C126        C  0.63123153  0.05954469  0.36683488     0.94600
O127        O  0.68863801  0.12142523  0.32458379    -0.78600
O128        O  0.59725317  0.10827600  0.37840621    -0.83800
C129        C  0.62622306  0.16043012  0.34083756     0.97300
C130        C  0.60064388  0.11595381  0.40507782     1.03200
O131        O  0.63545244  0.16706380  0.36671013    -0.79400
C132        C  0.66970899  0.11194490  0.30531046     1.01500
Fe133      Fe  0.56873087  0.88370377  0.13681664     1.65800
Fe134      Fe  0.51756636  0.89455461  0.15960614     1.73200
Fe135      Fe  0.50364244  0.84389396  0.11208986     1.54400
O136        O  0.53285134  0.84960918  0.08054151    -0.83100
O137        O  0.48752865  0.85900871  0.17899764    -0.81500
O138        O  0.57073315  0.88900905  0.09221561    -0.85700
O139        O  0.55813682  0.84173736  0.13376865    -0.80500
O140        O  0.49503323  0.87032861  0.08931949    -0.82300
O141        O  0.54346325  0.89908106  0.19448025    -0.85000
C142        C  0.53542292  0.81878275  0.13701725     0.95700
C143        C  0.55493853  0.87155279  0.07338794     1.03200
O144        O  0.53010926  0.87415383  0.13637445    -1.14000
O145        O  0.54667384  0.93103157  0.14186911    -0.76400
O146        O  0.58419306  0.92671635  0.14010928    -0.79900
O147        O  0.51189693  0.81701476  0.13425934    -0.80600
C148        C  0.57257445  0.94141935  0.13876248     0.94600
O149        O  0.56799221  0.87917029  0.18144992    -0.78600
O150        O  0.48980636  0.89240659  0.12721719    -0.83800
C151        C  0.46699013  0.84058115  0.16498649     0.97300
C152        C  0.48562029  0.88477327  0.10050836     1.03200
O153        O  0.46955862  0.83385786  0.13913983    -0.79400
C154        C  0.55856171  0.88863585  0.20066984     1.01500
Fe155      Fe  0.56776502  0.88311619  0.38678694     1.65800
Fe156      Fe  0.51707327  0.89484782  0.40859434     1.73200
Fe157      Fe  0.50285296  0.84382807  0.36127696     1.56800
O158        O  0.53213034  0.84987086  0.32961402    -0.83100
O159        O  0.48716109  0.85951026  0.42834135    -0.81500
O160        O  0.57055872  0.88853347  0.34228525    -0.85700
O161        O  0.55702638  0.84119017  0.38345313    -0.80500
O162        O  0.49418752  0.87032952  0.33864539    -0.82300
O163        O  0.54318050  0.89997001  0.44358987    -0.85000
C164        C  0.53425982  0.81823641  0.38617521     0.95700
C165        C  0.55487147  0.87143933  0.32312843     1.03200
O166        O  0.52931509  0.87397163  0.38567796    -1.14000
O167        O  0.54614278  0.93088972  0.38991534    -0.76400
O168        O  0.58349035  0.92621068  0.39013206    -0.79900
O169        O  0.51081199  0.81653856  0.38308973    -0.80600
C170        C  0.57204015  0.94095974  0.38713305     0.94600
O171        O  0.56605242  0.87817940  0.43139148    -0.78600
O172        O  0.48900892  0.89237635  0.37652865    -0.83800
C173        C  0.46670765  0.84057780  0.41462163     0.97300
C174        C  0.48477562  0.88475839  0.34985461     1.03200
O175        O  0.46907560  0.83375417  0.38873650    -0.79400
C176        C  0.55714498  0.88841649  0.45030883     1.01500
Fe177      Fe  0.68506377  0.56855808  0.17771668     1.65800
Fe178      Fe  0.62271338  0.51760801  0.20022433     1.73200
Fe179      Fe  0.65925355  0.50360320  0.15251231     1.54400
O180        O  0.68232339  0.53269611  0.12061350    -0.83100
O181        O  0.62814410  0.48759179  0.21987410    -0.81500
O182        O  0.68227178  0.57113526  0.13315572    -0.85700
O183        O  0.71635672  0.55803588  0.17466642    -0.80500
O184        O  0.62379426  0.49484695  0.13026792    -0.82300
O185        O  0.64397761  0.54384988  0.23491941    -0.85000
C186        C  0.71654084  0.53529407  0.17732950     0.95700
C187        C  0.68356343  0.55541415  0.11404165     1.03200
O188        O  0.65574818  0.53000517  0.17700338    -1.14000
O189        O  0.61545776  0.54646637  0.18142227    -0.76400
O190        O  0.65755691  0.58394778  0.18073621    -0.79900
O191        O  0.69475405  0.51179913  0.17409822    -0.80600
C192        C  0.63131137  0.57227784  0.17780641     0.94600
O193        O  0.68857441  0.56730073  0.22231900    -0.78600
O194        O  0.59694068  0.48943451  0.16856925    -0.83800
C195        C  0.62623251  0.46716443  0.20578471     0.97300
C196        C  0.60007482  0.48523148  0.14188019     1.03200
O197        O  0.63560785  0.46982953  0.17997676    -0.79400
C198        C  0.66956652  0.55820077  0.24138493     1.01500
Fe199      Fe  0.68593264  0.56950489  0.42738869     1.65800
Fe200      Fe  0.62349957  0.51829051  0.44895497     1.73200
Fe201      Fe  0.66129368  0.50444897  0.40287671     1.54400
O202        O  0.68475467  0.53365871  0.37121743    -0.83100
O203        O  0.62880111  0.48853953  0.46941159    -0.81500
O204        O  0.68317577  0.57150795  0.38278528    -0.85700
O205        O  0.71762656  0.55949998  0.42480591    -0.80500
O206        O  0.62629157  0.49509475  0.37947076    -0.82300
O207        O  0.64416908  0.54469058  0.48386941    -0.85000
C208        C  0.71817732  0.53699102  0.42793785     0.95700
C209        C  0.68487145  0.55571849  0.36404426     1.03200
O210        O  0.65696219  0.53080772  0.42661567    -1.14000
O211        O  0.61628407  0.54698396  0.42954623    -0.76400
O212        O  0.65817450  0.58466542  0.42991092    -0.79900
O213        O  0.69649813  0.51330683  0.42541538    -0.80600
C214        C  0.63197182  0.57290111  0.42652019     0.94600
O215        O  0.68899818  0.56842623  0.47210498    -0.78600
O216        O  0.59853549  0.48994266  0.41681119    -0.83800
C217        C  0.62741391  0.46807523  0.45591905     0.97300
C218        C  0.60230541  0.48543327  0.39038557     1.03200
O219        O  0.63728286  0.47057836  0.43034130    -0.79400
C220        C  0.66965866  0.55919059  0.49083528     1.01500
Fe221      Fe  0.43390084  0.31695107  0.03331071     1.65800
Fe222      Fe  0.48485006  0.37947299  0.01159304     1.73200
Fe223      Fe  0.49873691  0.34230229  0.05857263     1.54400
O224        O  0.46917514  0.31833374  0.08982240    -0.83100
O225        O  0.51551711  0.37470134  0.49238783    -0.81500
O226        O  0.43148582  0.32001150  0.07784866    -0.85700
O227        O  0.44460729  0.28567639  0.03663707    -0.80500
O228        O  0.50687503  0.37691498  0.08176615    -0.82300
O229        O  0.45979127  0.35826202  0.47615665    -0.85000
C230        C  0.46731888  0.28545851  0.03361469     0.95700
C231        C  0.44711313  0.31828337  0.09679875     1.03200
O232        O  0.47239686  0.34622503  0.03429726    -1.14000
O233        O  0.45548946  0.38643826  0.02928018    -0.76400
O234        O  0.41817833  0.34432828  0.02984037    -0.79900
O235        O  0.49082625  0.30736643  0.03608909    -0.80600
C236        C  0.42954156  0.37067173  0.03155873     0.94600
O237        O  0.43552953  0.31353714  0.48847860    -0.78600
O238        O  0.51207621  0.40473806  0.04441278    -0.83800
C239        C  0.53565686  0.37645723  0.00600884     0.97300
C240        C  0.51603511  0.40091941  0.07104712     1.03200
O241        O  0.53309679  0.36692269  0.03177098    -0.79400
C242        C  0.44511465  0.33272276  0.46951966     1.01500
Fe243      Fe  0.43323317  0.31711572  0.28317308     1.65800
Fe244      Fe  0.48443442  0.37936315  0.26109452     1.73200
Fe245      Fe  0.49818960  0.34166938  0.30747001     1.54400
O246        O  0.46905376  0.31820838  0.33915157    -0.83100
O247        O  0.51393061  0.37360771  0.24079902    -0.81500
O248        O  0.43141697  0.32024657  0.32782269    -0.85700
O249        O  0.44326870  0.28533490  0.28614157    -0.80500
O250        O  0.50752496  0.37667769  0.33059914    -0.82300
O251        O  0.45790706  0.35845929  0.22633553    -0.85000
C252        C  0.46581505  0.28480648  0.28311585     0.95700
C253        C  0.44717327  0.31833095  0.34648367     1.03200
O254        O  0.47186720  0.34603549  0.28373661    -1.14000
O255        O  0.45586160  0.38696231  0.28019486    -0.76400
O256        O  0.41817464  0.34505015  0.28017917    -0.79900
O257        O  0.48942673  0.30658863  0.28504901    -0.80600
C258        C  0.42991944  0.37133434  0.28310257     0.94600
O259        O  0.43430209  0.31370065  0.23851808    -0.78600
O260        O  0.51295030  0.40448189  0.29316766    -0.83800
C261        C  0.53439892  0.37514068  0.25442267     0.97300
C262        C  0.51739097  0.40069061  0.31964525     1.03200
O263        O  0.53192722  0.36549583  0.28007881    -0.79400
C264        C  0.44355874  0.33289384  0.21960078     1.01500
Fe265      Fe  0.56765661  0.68407996  0.15913624     1.65800
Fe266      Fe  0.51619696  0.62185681  0.13649165     1.73200
Fe267      Fe  0.50295102  0.65894500  0.18423978     1.54400
O268        O  0.53243723  0.68229992  0.21570257    -0.83100
O269        O  0.48622405  0.62761124  0.11733731    -0.81500
O270        O  0.57022473  0.68088907  0.20371516    -0.85700
O271        O  0.55744814  0.71561255  0.16281282    -0.80500
O272        O  0.49432706  0.62380906  0.20676223    -0.82300
O273        O  0.54190545  0.64319944  0.10167923    -0.85000
C274        C  0.53484841  0.71607359  0.16007000     0.95700
C275        C  0.55476139  0.68286991  0.22262674     1.03200
O276        O  0.52906043  0.65495775  0.15977784    -1.14000
O277        O  0.54545898  0.61424609  0.15365873    -0.76400
O278        O  0.58275696  0.65647018  0.15518188    -0.79900
O279        O  0.51125019  0.69429789  0.16250252    -0.80600
C280        C  0.57143331  0.63013064  0.15598697     0.94600
O281        O  0.56649449  0.68780315  0.11450147    -0.78600
O282        O  0.48855331  0.59625922  0.16887962    -0.83800
C283        C  0.46593368  0.62598157  0.13128180     0.97300
C284        C  0.48467213  0.59987168  0.19560630     1.03200
O285        O  0.46867458  0.63518256  0.15719531    -0.79400
C286        C  0.55719654  0.66872646  0.09537726     1.01500
Fe287      Fe  0.56784983  0.68484719  0.40912571     1.65800
Fe288      Fe  0.51616946  0.62260029  0.38689898     1.73200
Fe289      Fe  0.50350645  0.65924374  0.43591480     1.54400
O290        O  0.53349961  0.68305790  0.46674721    -0.83100
O291        O  0.48558413  0.62820573  0.36901099    -0.81500
O292        O  0.57118252  0.68198377  0.45357595    -0.85700
O293        O  0.55708817  0.71596941  0.41271225    -0.80500
O294        O  0.49565612  0.62411868  0.45812284    -0.82300
O295        O  0.54105859  0.64398149  0.35149235    -0.85000
C296        C  0.53427150  0.71613263  0.41069836     0.95700
C297        C  0.55598702  0.68372704  0.47295625     1.03200
O298        O  0.52932403  0.65557918  0.41045944    -1.14000
O299        O  0.54594608  0.61514418  0.40296367    -0.76400
O300        O  0.58320029  0.65738420  0.40508407    -0.79900
O301        O  0.51085137  0.69438547  0.41435500    -0.80600
C302        C  0.57191418  0.63102329  0.40554442     0.94600
O303        O  0.56622200  0.68846498  0.36456690    -0.78600
O304        O  0.48924526  0.59693959  0.41969610    -0.83800
C305        C  0.46547531  0.62607633  0.38377026     0.97300
C306        C  0.48549588  0.60026715  0.44655079     1.03200
O307        O  0.46871333  0.63510119  0.40978449    -0.79400
C308        C  0.55650093  0.66951329  0.34534575     1.01500
Fe309      Fe  0.31609889  0.43319104  0.05252271     1.65800
Fe310      Fe  0.37833909  0.48448938  0.07542659     1.73200
Fe311      Fe  0.34142194  0.49825020  0.02783896     1.54400
O312        O  0.31672562  0.46798314  0.49627173    -0.83100
O313        O  0.37294072  0.51467840  0.09468798    -0.81500
O314        O  0.31853601  0.43086714  0.00780660    -0.85700
O315        O  0.28482411  0.44370513  0.04997495    -0.80500
O316        O  0.37661137  0.50698979  0.00513804    -0.82300
O317        O  0.35712746  0.45898813  0.11045542    -0.85000
C318        C  0.28459408  0.46636622  0.05328442     0.95700
C319        C  0.31592451  0.44557276  0.48915124     1.03200
O320        O  0.34530052  0.47183243  0.05203350    -1.14000
O321        O  0.38568075  0.45525931  0.05767698    -0.76400
O322        O  0.34366991  0.41779943  0.05516372    -0.79900
O323        O  0.30626059  0.48995648  0.05008560    -0.80600
C324        C  0.37000910  0.42945963  0.05356827     0.94600
O325        O  0.31268015  0.43419885  0.09721319    -0.78600
O326        O  0.40386191  0.51198870  0.04311795    -0.83800
C327        C  0.37472796  0.53505551  0.08071827     0.97300
C328        C  0.40047653  0.51618873  0.01643784     1.03200
O329        O  0.36544180  0.53236570  0.05486099    -0.79400
C330        C  0.33153817  0.44414490  0.11653293     1.01500
Fe331      Fe  0.31648017  0.43402080  0.30236034     1.65800
Fe332      Fe  0.37818559  0.48512959  0.32673331     1.73200
Fe333      Fe  0.34125130  0.49945589  0.27965939     1.54400
O334        O  0.31828037  0.47084117  0.24720550    -0.83100
O335        O  0.37234316  0.51472880  0.34664880    -0.81500
O336        O  0.32018298  0.43302817  0.25775960    -0.85700
O337        O  0.28476320  0.44402543  0.29939181    -0.80500
O338        O  0.37654576  0.50903047  0.25710286    -0.82300
O339        O  0.35632462  0.45883493  0.36114499    -0.85000
C340        C  0.28421431  0.46640534  0.30377534     0.95700
C341        C  0.31822223  0.44894691  0.23940010     1.03200
O342        O  0.34537706  0.47274274  0.30303690    -1.14000
O343        O  0.38620778  0.45635166  0.30896107    -0.76400
O344        O  0.34430805  0.41892421  0.30537699    -0.79900
O345        O  0.30584024  0.49017097  0.30181389    -0.80600
C346        C  0.37069499  0.43050395  0.30510864     0.94600
O347        O  0.31209759  0.43390435  0.34697050    -0.78600
O348        O  0.40397687  0.51321661  0.29466854    -0.83800
C349        C  0.37396766  0.53531270  0.33333077     0.97300
C350        C  0.40042496  0.51773927  0.26809602     1.03200
O351        O  0.36472418  0.53310040  0.30751046    -0.79400
C352        C  0.33063275  0.44343855  0.36665594     1.01500
Fe353      Fe  0.11672181  0.43149294  0.07600653     1.65800
Fe354      Fe  0.10550673  0.48242405  0.05307756     1.73200
Fe355      Fe  0.15622957  0.49671197  0.10070284     1.54400
O356        O  0.15103777  0.46772128  0.13229592    -0.83100
O357        O  0.14094784  0.51270202  0.03363393    -0.81500
O358        O  0.11190956  0.42953324  0.12067097    -0.85700
O359        O  0.15886627  0.44258626  0.07883907    -0.80500
O360        O  0.12931001  0.50455875  0.12330150    -0.82300
O361        O  0.10095353  0.45660312  0.01832325    -0.85000
C362        C  0.18189413  0.46542056  0.07647728     0.95700
C363        C  0.12941023  0.44536558  0.13944139     1.03200
O364        O  0.12614623  0.47007639  0.07629575    -1.14000
O365        O  0.06918019  0.45330754  0.07110259    -0.76400
O366        O  0.07351777  0.41579877  0.07342030    -0.79900
O367        O  0.18351199  0.48890656  0.07896084    -0.80600
C368        C  0.05892522  0.42753696  0.07518779     0.94600
O369        O  0.12074288  0.43193229  0.03120654    -0.78600
O370        O  0.10749174  0.50996504  0.08526757    -0.83800
C371        C  0.15928823  0.53332563  0.04765641     0.97300
C372        C  0.11475801  0.51379879  0.11204191     1.03200
O373        O  0.16594713  0.53079951  0.07358197    -0.79400
C374        C  0.11118600  0.44136634  0.01203337     1.01500
Fe375      Fe  0.11664551  0.43249853  0.32587232     1.65800
Fe376      Fe  0.10679419  0.48427083  0.30295846     1.73200
Fe377      Fe  0.15636337  0.49723917  0.35170152     1.54400
O378        O  0.14960382  0.46768139  0.38333718    -0.83100
O379        O  0.14288380  0.51399554  0.28423050    -0.81500
O380        O  0.11069024  0.42976780  0.37029295    -0.85700
O381        O  0.15838570  0.44260693  0.32968603    -0.80500
O382        O  0.12971233  0.50598351  0.37360832    -0.82300
O383        O  0.10232278  0.45845949  0.26805623    -0.85000
C384        C  0.18157034  0.46526404  0.32765480     0.95700
C385        C  0.12778904  0.44510579  0.38960856     1.03200
O386        O  0.12651236  0.47119903  0.32669403    -1.14000
O387        O  0.06990070  0.45542291  0.32016773    -0.76400
O388        O  0.07375655  0.41761108  0.32197058    -0.79900
O389        O  0.18352915  0.48885251  0.33058802    -0.80600
C390        C  0.05927879  0.42948569  0.32333023     0.94600
O391        O  0.12197104  0.43378280  0.28138093    -0.78600
O392        O  0.10880216  0.51204936  0.33515186    -0.83800
C393        C  0.16127309  0.53434690  0.29849956     0.97300
C394        C  0.11574493  0.51576546  0.36205432     1.03200
O395        O  0.16738712  0.53159051  0.32457963    -0.79400
C396        C  0.11280421  0.44338169  0.26203019     1.01500
Fe397      Fe  0.11795752  0.68310713  0.21708539     1.65800
Fe398      Fe  0.10634060  0.62095301  0.24081342     1.73200
Fe399      Fe  0.15733475  0.65719150  0.19328465     1.54400
O400        O  0.15187089  0.68027175  0.16098803    -0.83100
O401        O  0.14176686  0.62633771  0.26054593    -0.81500
O402        O  0.11330476  0.68046122  0.17241178    -0.85700
O403        O  0.16000945  0.71430607  0.21443103    -0.80500
O404        O  0.13059946  0.62179385  0.17107804    -0.82300
O405        O  0.10202827  0.64260263  0.27527231    -0.85000
C406        C  0.18295087  0.71457295  0.21759164     0.95700
C407        C  0.13091398  0.68224162  0.15382046     1.03200
O408        O  0.12707341  0.65375608  0.21715606    -1.14000
O409        O  0.06979423  0.61349159  0.22286081    -0.76400
O410        O  0.07476347  0.65558047  0.21969664    -0.79900
O411        O  0.18465030  0.69277316  0.21488305    -0.80600
C412        C  0.05971682  0.62918147  0.21901426     0.94600
O413        O  0.12234256  0.68696114  0.26177193    -0.78600
O414        O  0.10813240  0.59493271  0.20912217    -0.83800
C415        C  0.16051648  0.62453591  0.24696738     0.97300
C416        C  0.11570346  0.59808642  0.18249831     1.03200
O417        O  0.16727518  0.63356669  0.22105901    -0.79400
C418        C  0.11296655  0.66824909  0.28119258     1.01500
Fe419      Fe  0.12022801  0.68590076  0.46688352     1.65800
Fe420      Fe  0.10817941  0.62389033  0.49126152     1.73200
Fe421      Fe  0.15873100  0.65898606  0.44318823     1.54400
O422        O  0.15353369  0.68240593  0.41096922    -0.83100
O423        O  0.14364881  0.62925833  0.01078894    -0.81500
O424        O  0.11458607  0.68172072  0.42242255    -0.85700
O425        O  0.16225604  0.71645912  0.46330974    -0.80500
O426        O  0.13134167  0.62381844  0.42111046    -0.82300
O427        O  0.10464410  0.64637180  0.02592685    -0.85000
C428        C  0.18497635  0.71641693  0.46697750     0.95700
C429        C  0.13182624  0.68294675  0.40369660     1.03200
O430        O  0.12898867  0.65631308  0.46736416    -1.14000
O431        O  0.07188846  0.61696063  0.47343620    -0.76400
O432        O  0.07718197  0.65917958  0.47058542    -0.79900
O433        O  0.18643151  0.69443273  0.46470639    -0.80600
C434        C  0.06210013  0.63285889  0.46944104     0.94600
O435        O  0.12436638  0.69048953  0.01146304    -0.78600
O436        O  0.10919696  0.59728236  0.45946674    -0.83800
C437        C  0.16131229  0.62573229  0.49683621     0.97300
C438        C  0.11644197  0.60019852  0.43268777     1.03200
O439        O  0.16806321  0.63461678  0.47084187    -0.79400
C440        C  0.11525114  0.67211843  0.03124294     1.01500
Fe441      Fe  0.88362948  0.56740135  0.19969744     1.65800
Fe442      Fe  0.89302748  0.51497953  0.17811199     1.73200
Fe443      Fe  0.84374912  0.50328685  0.22665925     1.54400
O444        O  0.85074575  0.53360893  0.25747049    -0.83100
O445        O  0.85668877  0.48460215  0.15996442    -0.81500
O446        O  0.89001546  0.57074886  0.24415502    -0.85700
O447        O  0.84188166  0.55745528  0.20332941    -0.80500
O448        O  0.87049337  0.49498807  0.24913438    -0.82300
O449        O  0.89717417  0.53996803  0.14257573    -0.85000
C450        C  0.81860981  0.53484178  0.20133022     0.95700
C451        C  0.87304151  0.55577206  0.26365101     1.03200
O452        O  0.87350887  0.52865035  0.20121764    -1.14000
O453        O  0.93024445  0.54430319  0.19486159    -0.76400
O454        O  0.92646285  0.58217908  0.19575829    -0.79900
O455        O  0.81651461  0.51125111  0.20485824    -0.80600
C456        C  0.94089106  0.57029952  0.19772798     0.94600
O457        O  0.87827498  0.56553991  0.15516257    -0.78600
O458        O  0.89121412  0.48808066  0.21110687    -0.83800
C459        C  0.83829359  0.46471958  0.17470366     0.97300
C460        C  0.88434245  0.48490089  0.23799199     1.03200
O461        O  0.83243343  0.46824328  0.20058440    -0.79400
C462        C  0.88733966  0.55554512  0.13614088     1.01500
Fe463      Fe  0.88616919  0.57073990  0.45000645     1.65800
Fe464      Fe  0.89680973  0.51918987  0.42810101     1.73200
Fe465      Fe  0.84575085  0.50590775  0.47457739     1.54400
O466        O  0.85067094  0.53473078  0.00596140    -0.83100
O467        O  0.86141563  0.48936730  0.40818958    -0.81500
O468        O  0.89131715  0.57282706  0.49470992    -0.85700
O469        O  0.84429802  0.56058946  0.45284756    -0.80500
O470        O  0.87087033  0.49627222  0.99841638    -0.82300
O471        O  0.90198992  0.54512625  0.39303878    -0.85000
C472        C  0.82123484  0.53795756  0.44962939     0.95700
C473        C  0.87283254  0.55647370  0.01337553     1.03200
O474        O  0.87633461  0.53205878  0.45066481    -1.14000
O475        O  0.93312843  0.54812013  0.44642819    -0.76400
O476        O  0.92907348  0.58582750  0.44698458    -0.79900
O477        O  0.81939119  0.51438228  0.45189428    -0.80600
C478        C  0.94365236  0.57411300  0.44884562     0.94600
O479        O  0.88182315  0.56963124  0.40523376    -0.78600
O480        O  0.89397409  0.49131233  0.46071018    -0.83800
C481        C  0.84249880  0.46904345  0.42191709     0.97300
C482        C  0.88596907  0.48729501  0.48727524     1.03200
O483        O  0.83561103  0.47175440  0.44761239    -0.79400
C484        C  0.89148533  0.56007543  0.38631965     1.01500
Fe485      Fe  0.88233253  0.31678470  0.09561136     1.65800
Fe486      Fe  0.89408104  0.37932119  0.11775378     1.73200
Fe487      Fe  0.84282805  0.34224426  0.07030677     1.54400
O488        O  0.84926292  0.31964244  0.03810780    -0.83100
O489        O  0.85876743  0.37396522  0.13749919    -0.81500
O490        O  0.88756046  0.31937503  0.05106245    -0.85700
O491        O  0.84050156  0.28535236  0.09261509    -0.80500
O492        O  0.86905226  0.37780126  0.04802599    -0.82300
O493        O  0.89901048  0.35830713  0.15266871    -0.85000
C494        C  0.81742852  0.28488355  0.09489642     0.95700
C495        C  0.87077336  0.31837195  0.03177842     1.03200
O496        O  0.87312238  0.34608290  0.09466942    -1.14000
O497        O  0.93046757  0.38644571  0.09960297    -0.76400
O498        O  0.92535509  0.34422128  0.09886179    -0.79900
O499        O  0.81555025  0.30649728  0.09149117    -0.80600
C500        C  0.94047439  0.37052859  0.09715547     0.94600
O501        O  0.87771705  0.31359334  0.14024602    -0.78600
O502        O  0.89173012  0.40501831  0.08582217    -0.83800
C503        C  0.83926483  0.37469759  0.12415766     0.97300
C504        C  0.88372229  0.40164069  0.05928676     1.03200
O505        O  0.83227177  0.36531413  0.09831247    -0.79400
C506        C  0.88783345  0.33276673  0.15922131     1.01500
Fe507      Fe  0.88342701  0.31733068  0.34557849     1.65800
Fe508      Fe  0.89452900  0.37948016  0.36846326     1.73200
Fe509      Fe  0.84389751  0.34263564  0.32069954     1.54400
O510        O  0.84960547  0.31918898  0.28921939    -0.83100
O511        O  0.85898163  0.37410018  0.38772568    -0.81500
O512        O  0.88891093  0.32071593  0.30095026    -0.85700
O513        O  0.84149069  0.28595304  0.34214148    -0.80500
O514        O  0.87067334  0.37778025  0.29827484    -0.82300
O515        O  0.89895021  0.35808740  0.40322122    -0.85000
C516        C  0.81838468  0.28544894  0.34465753     0.95700
C517        C  0.87147555  0.31899947  0.28209780     1.03200
O518        O  0.87395913  0.34640567  0.34521507    -1.14000
O519        O  0.93096955  0.38682214  0.35051736    -0.76400
O520        O  0.92640435  0.34485684  0.34893214    -0.79900
O521        O  0.81659031  0.30722518  0.34229048    -0.80600
C522        C  0.94113273  0.37117501  0.34697316     0.94600
O523        O  0.87874577  0.31352067  0.39027997    -0.78600
O524        O  0.89247806  0.40511674  0.33633633    -0.83800
C525        C  0.84068678  0.37619539  0.37346380     0.97300
C526        C  0.88500443  0.40164780  0.30961567     1.03200
O527        O  0.83393152  0.36665579  0.34769646    -0.79400
C528        C  0.88832140  0.33251928  0.40949944     1.01500
C529        C  0.90220342  0.33874677  0.49029671    -0.14800
C530        C  0.87667870  0.31784640  0.50100884     0.07300
C531        C  0.85643853  0.29943991  0.48142798    -0.14800
C532        C  0.86128695  0.30267910  0.45134629    -0.14800
C533        C  0.88597881  0.32502186  0.44058367     0.07300
C534        C  0.90665451  0.34260063  0.46029528    -0.14800
H535        H  0.91789541  0.35338740  0.50510373     0.11300
H536        H  0.83653304  0.28333699  0.48936899     0.11300
H537        H  0.84495010  0.28906737  0.43651372     0.11300
H538        H  0.92578079  0.36002884  0.45246412     0.11300
C539        C  0.85902260  0.30629561  0.20140350    -0.14800
C540        C  0.88517278  0.32533988  0.19026521     0.07300
C541        C  0.90753833  0.33967689  0.20951152    -0.14800
C542        C  0.90354455  0.33567139  0.23963560    -0.14800
C543        C  0.87693457  0.31806428  0.25084562     0.07300
C544        C  0.85482689  0.30302320  0.23149280    -0.14800
H545        H  0.84143988  0.29536201  0.18688828     0.11300
H546        H  0.92781472  0.35462336  0.20127074     0.11300
H547        H  0.92079187  0.34781738  0.25419846     0.11300
H548        H  0.83409963  0.28955411  0.23969477     0.11300
C549        C  0.88933150  0.46925110  0.03679922    -0.14800
C550        C  0.89048091  0.46790090  0.00624052     0.07300
C551        C  0.89455278  0.44762852  0.49343137    -0.14800
C552        C  0.89236479  0.42543228  0.01100224    -0.14800
C553        C  0.88976578  0.42605679  0.04142879     0.07300
C554        C  0.88927237  0.44866766  0.05425082    -0.14800
H555        H  0.88731352  0.48561616  0.04714536     0.11300
H556        H  0.89590480  0.44622691  0.46998327     0.11300
H557        H  0.89431486  0.40947618  0.50063748     0.11300
H558        H  0.88696018  0.44946878  0.07763224     0.11300
C559        C  0.83128360  0.43773654  0.37888173    -0.14800
C560        C  0.83157044  0.44112856  0.40925865     0.07300
C561        C  0.82828052  0.41939580  0.42743941    -0.14800
C562        C  0.82833197  0.39629361  0.41560608    -0.14800
C563        C  0.83066927  0.39415773  0.38536021     0.07300
C564        C  0.83038470  0.41419959  0.36701945    -0.14800
H565        H  0.83406286  0.45428270  0.36443051     0.11300
H566        H  0.82887872  0.42167112  0.45095843     0.11300
H567        H  0.82880910  0.38126359  0.43016356     0.11300
H568        H  0.83265126  0.41327783  0.34362498     0.11300
C569        C  0.86459890  0.56273478  0.34422333    -0.14800
C570        C  0.88921904  0.56502434  0.35510271     0.07300
C571        C  0.90984000  0.56808470  0.33543980    -0.14800
C572        C  0.90538738  0.56758468  0.30537274    -0.14800
C573        C  0.87990190  0.56307126  0.29456354     0.07300
C574        C  0.85974797  0.56121916  0.31414098    -0.14800
H575        H  0.84828366  0.56003684  0.35898974     0.11300
H576        H  0.92892639  0.56975205  0.34334839     0.11300
H577        H  0.92103011  0.56864199  0.29059831     0.11300
H578        H  0.83988155  0.55749325  0.30618112     0.11300
C579        C  0.86066308  0.55791549  0.09385313    -0.14800
C580        C  0.88551530  0.56117132  0.10515813     0.07300
C581        C  0.90734158  0.56665043  0.08612428    -0.14800
C582        C  0.90396585  0.56775701  0.05605103    -0.14800
C583        C  0.87840512  0.56242166  0.04462561     0.07300
C584        C  0.85694244  0.55802379  0.06371255    -0.14800
H585        H  0.84349224  0.55339141  0.10821391     0.11300
H586        H  0.92662255  0.56912395  0.09447846     0.11300
H587        H  0.92060001  0.57069899  0.04162828     0.11300
H588        H  0.83698815  0.55356130  0.05524571     0.11300
C589        C  0.89316950  0.44551331  0.24376846    -0.14800
C590        C  0.89057225  0.46702917  0.25644612     0.07300
C591        C  0.89016625  0.46886780  0.28700322    -0.14800
C592        C  0.89066583  0.44862794  0.30449457    -0.14800
C593        C  0.89100177  0.42593298  0.29169341     0.07300
C594        C  0.89306602  0.42495024  0.26124355    -0.14800
H595        H  0.89332309  0.44348240  0.22026718     0.11300
H596        H  0.88819795  0.48526363  0.29733167     0.11300
H597        H  0.88879951  0.44970279  0.32791661     0.11300
H598        H  0.89334418  0.40763131  0.25091645     0.11300
C599        C  0.82307946  0.43161578  0.13279272    -0.14800
C600        C  0.82700381  0.43640724  0.16295684     0.07300
C601        C  0.82754666  0.41618899  0.18076646    -0.14800
C602        C  0.82819226  0.39364224  0.16823298    -0.14800
C603        C  0.82751735  0.39059043  0.13775634     0.07300
C604        C  0.82284619  0.40857947  0.12032106    -0.14800
H605        H  0.82275998  0.44698730  0.11862535     0.11300
H606        H  0.83092508  0.41955923  0.20405894     0.11300
H607        H  0.83186158  0.38012149  0.18216371     0.11300
H608        H  0.82249035  0.40687106  0.09676641     0.11300
C609        C  0.01689043  0.63331666  0.46550079    -0.14800
C610        C  0.03199512  0.61937399  0.46323832     0.07300
C611        C  0.01787974  0.59122013  0.45550091    -0.14800
C612        C  0.98952198  0.57711842  0.45073926    -0.14800
C613        C  0.97407047  0.59057951  0.45347658     0.07300
C614        C  0.98804814  0.61897728  0.46066391    -0.14800
H615        H  0.02723338  0.65503517  0.47145303     0.11300
H616        H  0.02875311  0.57980436  0.45314644     0.11300
H617        H  0.97971477  0.55539066  0.44490593     0.11300
H618        H  0.97670980  0.62992988  0.46288251     0.11300
C619        C  0.01567148  0.62994311  0.20596463    -0.14800
C620        C  0.02923763  0.61536667  0.21399934     0.07300
C621        C  0.01327994  0.58643684  0.21718756    -0.14800
C622        C  0.98488651  0.57236731  0.21213299    -0.14800
C623        C  0.97118868  0.58660187  0.20370139     0.07300
C624        C  0.98682957  0.61565702  0.20089238    -0.14800
H625        H  0.02732886  0.65222743  0.20334089     0.11300
H626        H  0.02271917  0.57436180  0.22360935     0.11300
H627        H  0.97363368  0.55007821  0.21489995     0.11300
H628        H  0.97687902  0.62723396  0.19442207     0.11300
C629        C  0.14243936  0.69596351  0.32273948    -0.14800
C630        C  0.11622155  0.67626059  0.31208786     0.07300
C631        C  0.09453495  0.66129721  0.33177030    -0.14800
C632        C  0.09924544  0.66527269  0.36177971    -0.14800
C633        C  0.12594066  0.68349693  0.37249342     0.07300
C634        C  0.14740626  0.69919853  0.35278949    -0.14800
H635        H  0.15953468  0.70736577  0.30785534     0.11300
H636        H  0.07426427  0.64580310  0.32392723     0.11300
H637        H  0.08249560  0.65267306  0.37663090     0.11300
H638        H  0.16817786  0.71321273  0.36064609     0.11300
C639        C  0.14926345  0.69863681  0.10369692    -0.14800
C640        C  0.12652891  0.68531679  0.12264324     0.07300
C641        C  0.09960694  0.67140629  0.11094842    -0.14800
C642        C  0.09564387  0.66863649  0.08074616    -0.14800
C643        C  0.11848603  0.68060298  0.06192751     0.07300
C644        C  0.14521891  0.69662026  0.07350867    -0.14800
H645        H  0.17020248  0.70946101  0.11222639     0.11300
H646        H  0.08178024  0.66078648  0.12511544     0.11300
H647        H  0.07490290  0.65598499  0.07209682     0.11300
H648        H  0.16310197  0.70566377  0.05924867     0.11300
C649        C  0.01448375  0.38443347  0.33333571    -0.14800
C650        C  0.02891995  0.41329266  0.32871972     0.07300
C651        C  0.01403273  0.42746373  0.32962766    -0.14800
C652        C  0.98581526  0.41354442  0.33534246    -0.14800
C653        C  0.97123643  0.38484153  0.34037288     0.07300
C654        C  0.98580730  0.37028743  0.33907590    -0.14800
H655        H  0.02532683  0.37289337  0.33271458     0.11300
H656        H  0.02418980  0.44961964  0.32607595     0.11300
H657        H  0.97544261  0.42555503  0.33585479     0.11300
H658        H  0.97514907  0.34813266  0.34275528     0.11300
C659        C  0.17328158  0.58343575  0.30341883    -0.14800
C660        C  0.17220727  0.56226510  0.28584733     0.07300
C661        C  0.17415707  0.56579141  0.25543498    -0.14800
C662        C  0.17424143  0.58864699  0.24274114    -0.14800
C663        C  0.17151333  0.60784374  0.26022617     0.07300
C664        C  0.17249008  0.60584069  0.29070453    -0.14800
H665        H  0.17137820  0.58104357  0.32691322     0.11300
H666        H  0.17312464  0.54966852  0.24142849     0.11300
H667        H  0.17316803  0.58948216  0.21917428     0.11300
H668        H  0.17024430  0.62026058  0.30464068     0.11300
C669        C  0.10925159  0.53196428  0.41067055    -0.14800
C670        C  0.10945556  0.53385854  0.38008608     0.07300
C671        C  0.10754742  0.55565241  0.36711881    -0.14800
C672        C  0.10790318  0.57647735  0.38440804    -0.14800
C673        C  0.10957981  0.57551791  0.41493323     0.07300
C674        C  0.10902212  0.55248018  0.42795871    -0.14800
H675        H  0.11064250  0.51532374  0.42121345     0.11300
H676        H  0.10784705  0.55770947  0.34361213     0.11300
H677        H  0.10828052  0.59405032  0.37387938     0.11300
H678        H  0.11055092  0.55137975  0.45142593     0.11300
C679        C  0.01555141  0.42626871  0.09026146    -0.14800
C680        C  0.02884199  0.41152743  0.08216843     0.07300
C681        C  0.01289595  0.38244128  0.08014454    -0.14800
C682        C  0.98409518  0.36866205  0.08529381    -0.14800
C683        C  0.97091243  0.38380360  0.09256580     0.07300
C684        C  0.98720797  0.41271169  0.09531045    -0.14800
H685        H  0.02705857  0.44860838  0.09254030     0.11300
H686        H  0.02252523  0.37048115  0.07402552     0.11300
H687        H  0.97213660  0.34633207  0.08313533     0.11300
H688        H  0.97805580  0.42516021  0.10126477     0.11300
C689        C  0.17166844  0.58265823  0.05263571    -0.14800
C690        C  0.16980991  0.56121916  0.03490335     0.07300
C691        C  0.17146178  0.56478708  0.00448567    -0.14800
C692        C  0.17242236  0.58787529  0.49217541    -0.14800
C693        C  0.17095088  0.60800141  0.00967710     0.07300
C694        C  0.17182876  0.60565150  0.04013967    -0.14800
H695        H  0.16996882  0.58026653  0.07613665     0.11300
H696        H  0.16978752  0.54817183  0.49048626     0.11300
H697        H  0.17141468  0.58894549  0.46862414     0.11300
H698        H  0.17041058  0.62044765  0.05426626     0.11300
C699        C  0.10684226  0.55365842  0.11704190    -0.14800
C700        C  0.10834823  0.53168136  0.13007038     0.07300
C701        C  0.10789259  0.52960646  0.16061957    -0.14800
C702        C  0.10788669  0.55023909  0.17786281    -0.14800
C703        C  0.10894460  0.57349888  0.16476100     0.07300
C704        C  0.10746141  0.57458913  0.13426541    -0.14800
H705        H  0.10735032  0.55580533  0.09353380     0.11300
H706        H  0.10897158  0.51277782  0.17114172     0.11300
H707        H  0.10918337  0.54903228  0.20134256     0.11300
H708        H  0.10816252  0.59230742  0.12372113     0.11300
C709        C  0.09150004  0.43090146  0.46161579    -0.14800
C710        C  0.11283136  0.43537872  0.48103299     0.07300
C711        C  0.13793321  0.43911438  0.46997834    -0.14800
C712        C  0.14246974  0.44077286  0.43985916    -0.14800
C713        C  0.12157665  0.43765244  0.42050936     0.07300
C714        C  0.09568991  0.43155903  0.43153923    -0.14800
H715        H  0.07205970  0.42815650  0.46973490     0.11300
H716        H  0.15475702  0.44294234  0.48460988     0.11300
H717        H  0.16263581  0.44566820  0.43169707     0.11300
H718        H  0.07944480  0.42945908  0.41693926     0.11300
C719        C  0.14587747  0.44539865  0.19010502    -0.14800
C720        C  0.12395966  0.43885385  0.17066290     0.07300
C721        C  0.09743679  0.43032562  0.18174796    -0.14800
C722        C  0.09337798  0.43050306  0.21179984    -0.14800
C723        C  0.11555636  0.43818601  0.23115332     0.07300
C724        C  0.14157008  0.44458413  0.22020528    -0.14800
H725        H  0.16652954  0.45223459  0.18197429     0.11300
H726        H  0.08034716  0.42558936  0.16711207     0.11300
H727        H  0.07321596  0.42566638  0.21989875     0.11300
H728        H  0.15900217  0.45087900  0.23484245     0.11300
C729        C  0.23199705  0.44038156  0.30834164    -0.14800
C730        C  0.25762728  0.46514098  0.31081456     0.07300
C731        C  0.25781514  0.48936521  0.31959300    -0.14800
C732        C  0.23315959  0.48909871  0.32519767    -0.14800
C733        C  0.20746473  0.46459421  0.32224181     0.07300
C734        C  0.20711997  0.44010821  0.31401832    -0.14800
H735        H  0.23114328  0.42135546  0.30162777     0.11300
H736        H  0.27711485  0.50875437  0.32203156     0.11300
H737        H  0.23432046  0.50829744  0.33181428     0.11300
H738        H  0.18766612  0.42087514  0.31159801     0.11300
C739        C  0.23284924  0.44029209  0.06133956    -0.14800
C740        C  0.25819269  0.46547981  0.06039365     0.07300
C741        C  0.25813245  0.49026532  0.06566015    -0.14800
C742        C  0.23342382  0.49003203  0.07098908    -0.14800
C743        C  0.20796199  0.46499932  0.07125540     0.07300
C744        C  0.20797253  0.44005510  0.06671899    -0.14800
H745        H  0.23217633  0.42080649  0.05752705     0.11300
H746        H  0.27723103  0.51003953  0.06541000     0.11300
H747        H  0.23434586  0.50964544  0.07474775     0.11300
H748        H  0.18876017  0.42039415  0.06702564     0.11300
C749        C  0.30338870  0.44543184  0.40833554    -0.14800
C750        C  0.32220236  0.43794818  0.39738932     0.07300
C751        C  0.33573692  0.42916185  0.41672272    -0.14800
C752        C  0.33148024  0.42907346  0.44677844    -0.14800
C753        C  0.31447380  0.43880027  0.45790065     0.07300
C754        C  0.29989224  0.44630148  0.43843477    -0.14800
H755        H  0.29300511  0.45258134  0.39371873     0.11300
H756        H  0.35044141  0.42348591  0.40862517     0.11300
H757        H  0.34319659  0.42352163  0.46139886     0.11300
H758        H  0.28679938  0.45401496  0.44655088     0.11300
C759        C  0.33579827  0.42982605  0.16688468    -0.14800
C760        C  0.32367202  0.44005954  0.14743843     0.07300
C761        C  0.30712076  0.45038365  0.15830222    -0.14800
C762        C  0.30419108  0.45212195  0.18837451    -0.14800
C763        C  0.31710261  0.44277083  0.20797046     0.07300
C764        C  0.33210469  0.43069613  0.19695572    -0.14800
H765        H  0.34888525  0.42208961  0.15883362     0.11300
H766        H  0.29798813  0.45879060  0.14356883     0.11300
H767        H  0.29265339  0.46164115  0.19633457     0.11300
H768        H  0.34254136  0.42365873  0.21163156     0.11300
C769        C  0.46830231  0.57716708  0.49488385    -0.14800
C770        C  0.46662725  0.57590599  0.46428684     0.07300
C771        C  0.44424118  0.55282592  0.45093105    -0.14800
C772        C  0.42289526  0.53246102  0.46784010    -0.14800
C773        C  0.42390480  0.53447689  0.49840581     0.07300
C774        C  0.44857760  0.55615328  0.01178757    -0.14800
H775        H  0.48654523  0.59441263  0.00541290     0.11300
H776        H  0.44225913  0.55147413  0.42739269     0.11300
H777        H  0.40509841  0.51569696  0.45700798     0.11300
H778        H  0.44992004  0.55845521  0.03528616     0.11300
C779        C  0.40957463  0.58507063  0.32911688    -0.14800
C780        C  0.39083801  0.56296668  0.34672062     0.07300
C781        C  0.39375074  0.56565028  0.37719234    -0.14800
C782        C  0.41662813  0.58868823  0.38964026    -0.14800
C783        C  0.43730521  0.60893125  0.37176267     0.07300
C784        C  0.43289449  0.60767861  0.34151214    -0.14800
H785        H  0.40803645  0.58339115  0.30555192     0.11300
H786        H  0.37971191  0.54883469  0.39121957     0.11300
H787        H  0.41971881  0.58896798  0.41302542     0.11300
H788        H  0.44863099  0.62293223  0.32730381     0.11300
C789        C  0.57002563  0.66642407  0.26533725    -0.14800
C790        C  0.56168746  0.68441552  0.25380071     0.07300
C791        C  0.55540608  0.70019537  0.27286271    -0.14800
C792        C  0.55603444  0.69695953  0.30301782    -0.14800
C793        C  0.56202989  0.67722994  0.31443338     0.07300
C794        C  0.56970281  0.66247521  0.29548811    -0.14800
H795        H  0.57461619  0.65380433  0.25099839     0.11300
H796        H  0.54877044  0.71405491  0.26437733     0.11300
H797        H  0.54983413  0.70835450  0.31732353     0.11300
H798        H  0.57432940  0.64711964  0.30397030     0.11300
C799        C  0.56264383  0.69934717  0.05329692    -0.14800
C800        C  0.56314814  0.67612904  0.06436943     0.07300
C801        C  0.56563285  0.65799733  0.04499426    -0.14800
C802        C  0.56609308  0.66216535  0.01494268    -0.14800
C803        C  0.56322650  0.68401361  0.00387060     0.07300
C804        C  0.56214005  0.70296789  0.02316066    -0.14800
H805        H  0.56048780  0.71345059  0.06785753     0.11300
H806        H  0.56600832  0.63994435  0.05307959     0.11300
H807        H  0.56645747  0.64707035  0.00033163     0.11300
H808        H  0.55959433  0.71974856  0.01490662     0.11300
C809        C  0.44331146  0.55280194  0.20135377    -0.14800
C810        C  0.46641539  0.57573872  0.21386814     0.07300
C811        C  0.46943441  0.57722613  0.24437618    -0.14800
C812        C  0.44887414  0.55700584  0.26212574    -0.14800
C813        C  0.42468651  0.53531190  0.24964945     0.07300
C814        C  0.42248373  0.53291730  0.21909903    -0.14800
H815        H  0.44034777  0.55130242  0.17791933     0.11300
H816        H  0.48708719  0.59474187  0.25453301     0.11300
H817        H  0.45100643  0.55944196  0.28558900     0.11300
H818        H  0.40405437  0.51633768  0.20893965     0.11300
C819        C  0.39373876  0.56663036  0.12375115    -0.14800
C820        C  0.39181292  0.56298513  0.09335903     0.07300
C821        C  0.41146851  0.58427128  0.07556886    -0.14800
C822        C  0.43464451  0.60698966  0.08802917    -0.14800
C823        C  0.43803169  0.60915426  0.11846490     0.07300
C824        C  0.41647762  0.58979777  0.13620548    -0.14800
H825        H  0.37895102  0.55042463  0.13790175     0.11300
H826        H  0.41067911  0.58179906  0.05207101     0.11300
H827        H  0.45104795  0.62152564  0.07390357     0.11300
H828        H  0.41873446  0.59076648  0.15972940     0.11300
C829        C  0.42735391  0.41222135  0.30073777    -0.14800
C830        C  0.41348175  0.38493510  0.29000973     0.07300
C831        C  0.38467520  0.37190538  0.28532531    -0.14800
C832        C  0.37033160  0.38630843  0.29051868    -0.14800
C833        C  0.38458574  0.41392268  0.30053734     0.07300
C834        C  0.41319589  0.42642370  0.30591311    -0.14800
H835        H  0.44942613  0.42285176  0.30503000     0.11300
H836        H  0.37339689  0.35089175  0.27705835     0.11300
H837        H  0.34828825  0.37605961  0.28621064     0.11300
H838        H  0.42491695  0.44747758  0.31401778     0.11300
C839        C  0.38441636  0.36969580  0.04320197    -0.14800
C840        C  0.41278073  0.38437328  0.03602697     0.07300
C841        C  0.42599586  0.41336726  0.03347893    -0.14800
C842        C  0.41177135  0.42743379  0.03871091    -0.14800
C843        C  0.38370518  0.41312513  0.04668835     0.07300
C844        C  0.36995581  0.38398670  0.04846058    -0.14800
H845        H  0.37359293  0.34734791  0.04521691     0.11300
H846        H  0.44766662  0.42550828  0.02759771     0.11300
H847        H  0.42303297  0.44978896  0.03662585     0.11300
H848        H  0.34829026  0.37235765  0.05445790     0.11300
C849        C  0.44532232  0.30091472  0.39710459    -0.14800
C850        C  0.44113755  0.31796980  0.37774187     0.07300
C851        C  0.43522860  0.33786618  0.38889036    -0.14800
C852        C  0.43530072  0.34190159  0.41897326    -0.14800
C853        C  0.44031302  0.32543540  0.43835766     0.07300
C854        C  0.44439261  0.30428215  0.42725484    -0.14800
H855        H  0.45022833  0.28567024  0.38889008     0.11300
H856        H  0.43245637  0.35157264  0.37430005     0.11300
H857        H  0.43234666  0.35847272  0.42710522     0.11300
H858        H  0.44871007  0.29163243  0.44184578     0.11300
C859        C  0.43449644  0.33782316  0.13871223    -0.14800
C860        C  0.44063613  0.31795387  0.12793907     0.07300
C861        C  0.44445626  0.30087574  0.14759391    -0.14800
C862        C  0.44306973  0.30428005  0.17766872    -0.14800
C863        C  0.43892599  0.32551006  0.18843755     0.07300
C864        C  0.43414229  0.34191655  0.16874866    -0.14800
H865        H  0.43191153  0.35149084  0.12388891     0.11300
H866        H  0.44945034  0.28560587  0.13968658     0.11300
H867        H  0.44716314  0.29162535  0.19249837     0.11300
H868        H  0.43109176  0.35850983  0.17660653     0.11300
C869        C  0.74528718  0.51318304  0.43696077    -0.14800
C870        C  0.74487601  0.53803369  0.43395345     0.07300
C871        C  0.77007892  0.56330544  0.43608596    -0.14800
C872        C  0.79507800  0.56356410  0.44103670    -0.14800
C873        C  0.79531090  0.53855509  0.44388779     0.07300
C874        C  0.77005538  0.51343819  0.44179822    -0.14800
H875        H  0.72638332  0.49331129  0.43545986     0.11300
H876        H  0.77050280  0.58283350  0.43382661     0.11300
H877        H  0.81415292  0.58327721  0.44262200     0.11300
H878        H  0.76928744  0.49373274  0.44397346     0.11300
C879        C  0.63125088  0.61800178  0.42409069    -0.14800
C880        C  0.61850268  0.58927822  0.41901975     0.07300
C881        C  0.59147467  0.57533897  0.40762335    -0.14800
C882        C  0.57701387  0.58925159  0.40268565    -0.14800
C883        C  0.58903422  0.61764206  0.40895480     0.07300
C884        C  0.61659303  0.63210245  0.41910599    -0.14800
H885        H  0.65212249  0.62932774  0.43274243     0.11300
H886        H  0.58116587  0.55335568  0.40287463     0.11300
H887        H  0.55607178  0.57748630  0.39428435     0.11300
H888        H  0.62648483  0.65402894  0.42396040     0.11300
C889        C  0.60804657  0.43665867  0.49905666    -0.14800
C890        C  0.61006526  0.44021343  0.46864714     0.07300
C891        C  0.59032693  0.41891872  0.45082397    -0.14800
C892        C  0.56717393  0.39617758  0.46320755    -0.14800
C893        C  0.56382718  0.39392001  0.49364110     0.07300
C894        C  0.58552525  0.41250382  0.01065666    -0.14800
H895        H  0.62370853  0.45137851  0.01248517     0.11300
H896        H  0.59111564  0.42134045  0.42732386     0.11300
H897        H  0.55080252  0.38158386  0.44900666     0.11300
H898        H  0.58373769  0.41110847  0.03421259     0.11300
C899        C  0.57883910  0.46918204  0.34197972    -0.14800
C900        C  0.57818547  0.46647611  0.37246894     0.07300
C901        C  0.55571791  0.44342734  0.38554476    -0.14800
C902        C  0.53512533  0.42258112  0.36835291    -0.14800
C903        C  0.53629839  0.42471106  0.33779314     0.07300
C904        C  0.55786601  0.44861421  0.32478292    -0.14800
H905        H  0.59604551  0.48674292  0.33142874     0.11300
H906        H  0.55495286  0.44068816  0.40898339     0.11300
H907        H  0.51878801  0.40432089  0.37892583     0.11300
H908        H  0.55944837  0.45061653  0.30126746     0.11300
C909        C  0.74264790  0.51094755  0.18939351    -0.14800
C910        C  0.74293630  0.53587673  0.18391503     0.07300
C911        C  0.76853199  0.56083041  0.18439046    -0.14800
C912        C  0.79323790  0.56071398  0.18999845    -0.14800
C913        C  0.79281790  0.53564766  0.19528409     0.07300
C914        C  0.76715993  0.51083123  0.19497404    -0.14800
H915        H  0.72338224  0.49132485  0.18935153     0.11300
H916        H  0.76950326  0.58040262  0.18021806     0.11300
H917        H  0.81262906  0.58020426  0.19010189     0.11300
H918        H  0.76590461  0.49111668  0.19906930     0.11300
C919        C  0.63032952  0.61714937  0.17606243    -0.14800
C920        C  0.61799901  0.58865349  0.16998420     0.07300
C921        C  0.59151410  0.57490142  0.15725790    -0.14800
C922        C  0.57704973  0.58876733  0.15208156    -0.14800
C923        C  0.58857888  0.61686551  0.15946189     0.07300
C924        C  0.61568107  0.63118457  0.17084461    -0.14800
H925        H  0.65078498  0.62828115  0.18574610     0.11300
H926        H  0.58164936  0.55311054  0.15168863     0.11300
H927        H  0.55649223  0.57721714  0.14266469     0.11300
H928        H  0.62515060  0.65290079  0.17655878     0.11300
C929        C  0.58915158  0.41819318  0.19967139    -0.14800
C930        C  0.60870700  0.43915888  0.21796870     0.07300
C931        C  0.60642502  0.43508931  0.24827018    -0.14800
C932        C  0.58360336  0.41168348  0.26013229    -0.14800
C933        C  0.56225533  0.39254578  0.24190385     0.07300
C934        C  0.56583294  0.39529231  0.21154938    -0.14800
H935        H  0.59020241  0.42101559  0.17623083     0.11300
H936        H  0.62107759  0.45105881  0.26280499     0.11300
H937        H  0.58115420  0.41028877  0.28362240     0.11300
H938        H  0.54955552  0.38097525  0.19706337     0.11300
C939        C  0.66154116  0.56888779  0.29202069    -0.14800
C940        C  0.67721476  0.56303667  0.27241940     0.07300
C941        C  0.69792788  0.55810961  0.28318395    -0.14800
C942        C  0.70154213  0.55706160  0.31324827    -0.14800
C943        C  0.68519640  0.56197152  0.33285974     0.07300
C944        C  0.66586623  0.56885866  0.32204110    -0.14800
H945        H  0.64533806  0.57253509  0.28412314     0.11300
H946        H  0.70997145  0.55317512  0.26839240     0.11300
H947        H  0.71636187  0.55145480  0.32120132     0.11300
H948        H  0.65273554  0.57226266  0.33684314     0.11300
C949        C  0.66164411  0.56954356  0.04171058    -0.14800
C950        C  0.67800656  0.56434535  0.02239781     0.07300
C951        C  0.69897911  0.56002154  0.03358512    -0.14800
C952        C  0.70198571  0.55860458  0.06373262    -0.14800
C953        C  0.68476375  0.56256665  0.08301195     0.07300
C954        C  0.66534927  0.56915493  0.07182428    -0.14800
H955        H  0.64526738  0.57276611  0.03349973     0.11300
H956        H  0.71160315  0.55564677  0.01903505     0.11300
H957        H  0.71692841  0.55329399  0.07198577     0.11300
H958        H  0.65160008  0.57189074  0.08636534     0.11300
C959        C  0.55366263  0.44300561  0.13743136    -0.14800
C960        C  0.57551040  0.46664649  0.12443120     0.07300
C961        C  0.57529551  0.47025031  0.09416991    -0.14800
C962        C  0.55440055  0.44973907  0.07692330    -0.14800
C963        C  0.53383796  0.42501376  0.08963523     0.07300
C964        C  0.53313378  0.42221167  0.12014142    -0.14800
H965        H  0.55352429  0.43969770  0.16072701     0.11300
H966        H  0.59194891  0.48838591  0.08374638     0.11300
H967        H  0.55550942  0.45238193  0.05347447     0.11300
H968        H  0.51746860  0.40337815  0.13051257     0.11300
C969        C  0.55945076  0.79140828  0.39087642    -0.14800
C970        C  0.53480842  0.79242980  0.39271638     0.07300
C971        C  0.51022693  0.76823076  0.40053393    -0.14800
C972        C  0.51020744  0.74366220  0.40631421    -0.14800
C973        C  0.53476429  0.74251418  0.40444165     0.07300
C974        C  0.55942797  0.76669413  0.39666116    -0.14800
H975        H  0.57870961  0.80963943  0.38474068     0.11300
H976        H  0.49088146  0.76823607  0.40229389     0.11300
H977        H  0.49082835  0.72552580  0.41237385     0.11300
H978        H  0.57867406  0.76649700  0.39491047     0.11300
C979        C  0.51094064  0.76783414  0.14680549    -0.14800
C980        C  0.53600259  0.79295529  0.14354211     0.07300
C981        C  0.56104568  0.79274109  0.14609788    -0.14800
C982        C  0.56090013  0.76787118  0.15149719    -0.14800
C983        C  0.53569992  0.74274171  0.15442012     0.07300
C984        C  0.51079492  0.74316483  0.15213039    -0.14800
H985        H  0.49122823  0.76709764  0.14508386     0.11300
H986        H  0.58073533  0.81173421  0.14376048     0.11300
H987        H  0.58046065  0.76831060  0.15327274     0.11300
H988        H  0.49096625  0.72431703  0.15438737     0.11300
C989        C  0.56983409  0.90791618  0.25108351    -0.14800
C990        C  0.56382850  0.88617131  0.23164298     0.07300
C991        C  0.55876524  0.86054971  0.24260147    -0.14800
C992        C  0.55738471  0.85602745  0.27270120    -0.14800
C993        C  0.56209650  0.87740147  0.29214011     0.07300
C994        C  0.56947639  0.90369743  0.28115519    -0.14800
H995        H  0.57364204  0.92777169  0.24301438     0.11300
H996        H  0.55377848  0.84343420  0.22792878     0.11300
H997        H  0.55147798  0.83555520  0.28080041     0.11300
H998        H  0.57281780  0.92034311  0.29581995     0.11300
C999        C  0.56979191  0.90777446  0.50081658    -0.14800
C1000       C  0.56172053  0.88553510  0.48141622     0.07300
C1001       C  0.55470932  0.85935296  0.49240944    -0.14800
C1002       C  0.55516647  0.85553293  0.02263678    -0.14800
C1003       C  0.56128199  0.87726624  0.04214706     0.07300
C1004       C  0.56940748  0.90375564  0.03113011    -0.14800
H1005       H  0.57507948  0.92808315  0.49271822     0.11300
H1006       H  0.54804701  0.84185336  0.47779801     0.11300
H1007       H  0.54863993  0.83490536  0.03069859     0.11300
H1008       H  0.57381526  0.92070947  0.04582149     0.11300
C1009       C  0.76675438  0.25749461  0.34901537    -0.14800
C1010       C  0.79251020  0.25867237  0.34993584     0.07300
C1011       C  0.79301937  0.23416331  0.35582134    -0.14800
C1012       C  0.76834850  0.20924212  0.36131604    -0.14800
C1013       C  0.74267861  0.20833708  0.36103362     0.07300
C1014       C  0.74224479  0.23273460  0.35445234    -0.14800
H1015       H  0.76545144  0.27581358  0.34419856     0.11300
H1016       H  0.81248865  0.23430038  0.35653121     0.11300
H1017       H  0.76942542  0.19081980  0.36621652     0.11300
H1018       H  0.72289283  0.23283074  0.35371679     0.11300
C1019       C  0.58890788  0.01294246  0.36558694    -0.14800
C1020       C  0.61753455  0.02901512  0.37079010     0.07300
C1021       C  0.63190445  0.01553724  0.37989752    -0.14800
C1022       C  0.61755180  0.98667015  0.38462935    -0.14800
C1023       C  0.58867814  0.97099181  0.38033628     0.07300
C1024       C  0.57478614  0.98452936  0.37024473    -0.14800
H1025       H  0.57710583  0.02233748  0.35806388     0.11300
H1026       H  0.65400281  0.02731946  0.38391317     0.11300
H1027       H  0.62884322  0.97678973  0.39230255     0.11300
H1028       H  0.55267055  0.97316655  0.36616091     0.11300
C1029       C  0.74157977  0.23258846  0.10753845    -0.14800
C1030       C  0.74214863  0.20824488  0.11402074     0.07300
C1031       C  0.76781502  0.20916331  0.11387062    -0.14800
C1032       C  0.79233888  0.23395778  0.10762726    -0.14800
C1033       C  0.79168751  0.25832694  0.10135582     0.07300
C1034       C  0.76595276  0.25722808  0.10130236    -0.14800
H1035       H  0.72221363  0.23267195  0.10722458     0.11300
H1036       H  0.76898655  0.19078687  0.11876455     0.11300
H1037       H  0.81179589  0.23406406  0.10785283     0.11300
H1038       H  0.76455161  0.27548034  0.09641694     0.11300
C1039       C  0.57511818  0.98697669  0.13380248    -0.14800
C1040       C  0.58899856  0.97180215  0.13361203     0.07300
C1041       C  0.61774508  0.98601746  0.12831789    -0.14800
C1042       C  0.63202938  0.01477754  0.12292174    -0.14800
C1043       C  0.61770185  0.02960306  0.12266732     0.07300
C1044       C  0.58915131  0.01523849  0.12843687    -0.14800
H1045       H  0.55307455  0.97701967  0.13800195     0.11300
H1046       H  0.62906637  0.97494339  0.12812301     0.11300
H1047       H  0.65407450  0.02529040  0.11865118     0.11300
H1048       H  0.57735083  0.02582227  0.12881272     0.11300
C1049       C  0.66733564  0.09465514  0.00532269    -0.14800
C1050       C  0.67953290  0.11729383  0.02449080     0.07300
C1051       C  0.69662122  0.14401653  0.01338724    -0.14800
C1052       C  0.69984054  0.14729604  0.48353053    -0.14800
C1053       C  0.68542290  0.12518470  0.46398187     0.07300
C1054       C  0.66878153  0.09828964  0.47499952    -0.14800
H1055       H  0.65394878  0.07392659  0.01358498     0.11300
H1056       H  0.70592483  0.16175436  0.02790500     0.11300
H1057       H  0.71263500  0.16822192  0.47550474     0.11300
H1058       H  0.65717925  0.08099189  0.46032612     0.11300
C1059       C  0.66449891  0.09589892  0.22508240    -0.14800
C1060       C  0.68393554  0.12189632  0.21386565     0.07300
C1061       C  0.70139607  0.14317276  0.23305427    -0.14800
C1062       C  0.69846532  0.13894733  0.26318583    -0.14800
C1063       C  0.67734718  0.11375680  0.27440484     0.07300
C1064       C  0.66088638  0.09199805  0.25519979    -0.14800
H1065       H  0.65061196  0.07935383  0.21058167     0.11300
H1066       H  0.71637476  0.16340766  0.22473549     0.11300
H1067       H  0.71117058  0.15606632  0.27767141     0.11300
H1068       H  0.64441299  0.07245850  0.26348595     0.11300
C1069       C  0.44016232  0.20828405  0.26887516    -0.14800
C1070       C  0.46514453  0.20778055  0.26977844     0.07300
C1071       C  0.48993306  0.23266281  0.27514443    -0.14800
C1072       C  0.48990265  0.25739897  0.27922392    -0.14800
C1073       C  0.46507022  0.25810365  0.27818266     0.07300
C1074       C  0.44011842  0.23321728  0.27307065    -0.14800
H1075       H  0.42069560  0.18948522  0.26464858     0.11300
H1076       H  0.50956863  0.23314337  0.27606915     0.11300
H1077       H  0.50952227  0.27604534  0.28333575     0.11300
H1078       H  0.42063791  0.23303358  0.27217872     0.11300
C1079       C  0.55169440  0.10300424  0.21707699    -0.14800
C1080       C  0.53312727  0.11033519  0.20485278     0.07300
C1081       C  0.53410706  0.11512647  0.17463126    -0.14800
C1082       C  0.55426983  0.11421761  0.15735138    -0.14800
C1083       C  0.57416635  0.10909163  0.17007136     0.07300
C1084       C  0.57227766  0.10276526  0.19989951    -0.14800
H1085       H  0.55152121  0.09927584  0.24027135     0.11300
H1086       H  0.52004987  0.12075256  0.16455128     0.11300
H1087       H  0.55551572  0.11946801  0.13443628     0.11300
H1088       H  0.58746523  0.09880621  0.21014292     0.11300
C1089       C  0.58398824  0.17274193  0.28552498    -0.14800
C1090       C  0.56241828  0.17028919  0.30336903     0.07300
C1091       C  0.56590704  0.17161837  0.33377512    -0.14800
C1092       C  0.58928619  0.17249788  0.34612182    -0.14800
C1093       C  0.60895882  0.17103026  0.32824816     0.07300
C1094       C  0.60688906  0.17263304  0.29786181    -0.14800
H1095       H  0.58162865  0.17139727  0.26199701     0.11300
H1096       H  0.54948773  0.16957343  0.34795032     0.11300
H1097       H  0.59022357  0.17096607  0.36962527     0.11300
H1098       H  0.62169024  0.17137017  0.28365083     0.11300
C1099       C  0.49176809  0.23424634  0.01910735    -0.14800
C1100       C  0.46686062  0.20868016  0.01828966     0.07300
C1101       C  0.44209615  0.20842348  0.52312920    -0.14800
C1102       C  0.44168994  0.23338247  0.02692546    -0.14800
C1103       C  0.46671293  0.25890029  0.02781140     0.07300
C1104       C  0.49169283  0.25892124  0.02375400    -0.14800
H1105       H  0.51152001  0.23530943  0.01606420     0.11300
H1106       H  0.42267056  0.18900189  0.52403078     0.11300
H1107       H  0.42257312  0.23236086  0.53256911     0.11300
H1108       H  0.51139285  0.27809548  0.02424468     0.11300
C1109       C  0.55535713  0.10563573  0.47045699    -0.14800
C1110       C  0.53480559  0.10992929  0.45791468     0.07300
C1111       C  0.53406474  0.11220292  0.42741591    -0.14800
C1112       C  0.55442615  0.11193043  0.40998994    -0.14800
C1113       C  0.57620757  0.10990470  0.42276910     0.07300
C1114       C  0.57611446  0.10598341  0.45303905    -0.14800
H1115       H  0.55653797  0.10397684  0.49388826     0.11300
H1116       H  0.51845703  0.11549727  0.41711669     0.11300
H1117       H  0.55420868  0.11526341  0.38673942     0.11300
H1118       H  0.59274841  0.10438190  0.46333089     0.11300
C1119       C  0.58544280  0.17324852  0.03488808    -0.14800
C1120       C  0.56471810  0.17257568  0.05281176     0.07300
C1121       C  0.56885560  0.17510389  0.08312425    -0.14800
C1122       C  0.59190752  0.17531447  0.09544939    -0.14800
C1123       C  0.61056947  0.17201942  0.07767839     0.07300
C1124       C  0.60801727  0.17256191  0.04723747    -0.14800
H1125       H  0.58254344  0.17092648  0.01144519     0.11300
H1126       H  0.55307204  0.17443235  0.09735543     0.11300
H1127       H  0.59323573  0.17469593  0.11900950     0.11300
H1128       H  0.62205145  0.16994262  0.03308921     0.11300
C1129       C  0.43367688  0.09216433  0.37725326    -0.14800
C1130       C  0.44052913  0.11399668  0.35766737     0.07300
C1131       C  0.44678812  0.14004172  0.36853016    -0.14800
C1132       C  0.44787682  0.14468585  0.39857619    -0.14800
C1133       C  0.44176022  0.12309538  0.41822831     0.07300
C1134       C  0.43378469  0.09656180  0.40734768    -0.14800
H1135       H  0.42896805  0.07197078  0.36929207     0.11300
H1136       H  0.45250494  0.15725644  0.35379421     0.11300
H1137       H  0.45436738  0.16535953  0.40650442     0.11300
H1138       H  0.42945326  0.07973098  0.42214863     0.11300
C1139       C  0.44481121  0.14166354  0.11904106    -0.14800
C1140       C  0.44020856  0.11614410  0.10817288     0.07300
C1141       C  0.43394627  0.09439816  0.12764068    -0.14800
C1142       C  0.43333187  0.09841477  0.15765287    -0.14800
C1143       C  0.44000015  0.12453345  0.16864973     0.07300
C1144       C  0.44523204  0.14600405  0.14914423    -0.14800
H1145       H  0.44998625  0.15879311  0.10435638     0.11300
H1146       H  0.43048362  0.07462075  0.11966119     0.11300
H1147       H  0.42970500  0.08172794  0.17236109     0.11300
H1148       H  0.45070043  0.16637595  0.15723483     0.11300
C1149       C  0.26056282  0.76815814  0.48167362    -0.14800
C1150       C  0.26026177  0.79293349  0.48632449     0.07300
C1151       C  0.23482606  0.79239300  0.48452819    -0.14800
C1152       C  0.21029944  0.76759965  0.47825222    -0.14800
C1153       C  0.21072261  0.74285705  0.47364182     0.07300
C1154       C  0.23617901  0.74350903  0.47544497    -0.14800
H1155       H  0.27973156  0.76772638  0.48281082     0.11300
H1156       H  0.23263609  0.81060388  0.98955086     0.11300
H1157       H  0.19102184  0.76780916  0.47709028     0.11300
H1158       H  0.23735722  0.72492187  0.47197878     0.11300
C1159       C  0.41449636  0.98792698  0.49352824    -0.14800
C1160       C  0.38515216  0.97160900  0.99825090     0.07300
C1161       C  0.37126532  0.98685374  0.99751912    -0.14800
C1162       C  0.38571597  0.01557750  0.00331531    -0.14800
C1163       C  0.41422868  0.02942557  0.01002148     0.07300
C1164       C  0.42854014  0.01617019  0.49932361    -0.14800
H1165       H  0.42666200  0.97844957  0.48766754     0.11300
H1166       H  0.34943186  0.97669681  0.99213269     0.11300
H1167       H  0.37470056  0.02693624  0.00227191     0.11300
H1168       H  0.45091734  0.02727591  0.49760572     0.11300
C1169       C  0.42445036  0.89186679  0.07794949    -0.14800
C1170       C  0.42579415  0.89099511  0.04738420     0.07300
C1171       C  0.44904516  0.89189274  0.03446481    -0.14800
C1172       C  0.46948566  0.89148679  0.05181666    -0.14800
C1173       C  0.46734447  0.89080583  0.08238869     0.07300
C1174       C  0.44519895  0.89208274  0.09529483    -0.14800
H1175       H  0.40673893  0.89117800  0.08845344     0.11300
H1176       H  0.45048627  0.89097257  0.01097034     0.11300
H1177       H  0.48635749  0.89050872  0.04132722     0.11300
H1178       H  0.44289757  0.89131062  0.11878703     0.11300
C1179       C  0.39452125  0.82728280  0.42248286    -0.14800
C1180       C  0.39303768  0.82956089  0.45284896     0.07300
C1181       C  0.41301789  0.82848958  0.47061596    -0.14800
C1182       C  0.43606021  0.82891318  0.45810807    -0.14800
C1183       C  0.43899079  0.82955555  0.42765328     0.07300
C1184       C  0.41714517  0.82682671  0.40999220    -0.14800
H1185       H  0.37948834  0.82829209  0.40836308     0.11300
H1186       H  0.41257346  0.83064573  0.49409421     0.11300
H1187       H  0.45269931  0.83121318  0.47215293     0.11300
H1188       H  0.41906618  0.82767649  0.38642699     0.11300
C1189       C  0.23339057  0.74109749  0.23063895    -0.14800
C1190       C  0.20874482  0.74111141  0.22421006     0.07300
C1191       C  0.20929115  0.76661632  0.22390315    -0.14800
C1192       C  0.23392733  0.79146584  0.22985566    -0.14800
C1193       C  0.25855292  0.79134861  0.23625190     0.07300
C1194       C  0.25789095  0.76580714  0.23655551    -0.14800
H1195       H  0.23381602  0.72190191  0.23117055     0.11300
H1196       H  0.19071969  0.76740770  0.21891708     0.11300
H1197       H  0.23369830  0.81075275  0.22935770     0.11300
H1198       H  0.27636006  0.76481322  0.24148374     0.11300
C1199       C  0.36846514  0.98439074  0.25580693    -0.14800
C1200       C  0.38204533  0.97162090  0.24272855     0.07300
C1201       C  0.40960495  0.98835615  0.23359222    -0.14800
C1202       C  0.42381301  0.01674761  0.23882652    -0.14800
C1203       C  0.41097577  0.02946318  0.25334471     0.07300
C1204       C  0.38286265  0.01318232  0.26107483    -0.14800
H1205       H  0.34717519  0.97204660  0.26290214     0.11300
H1206       H  0.42054525  0.97939141  0.22281596     0.11300
H1207       H  0.44522510  0.02873434  0.23195372     0.11300
H1208       H  0.37239650  0.02248107  0.27216046     0.11300
C1209       C  0.42412269  0.89288118  0.32755622    -0.14800
C1210       C  0.42524571  0.89172893  0.29700380     0.07300
C1211       C  0.44819167  0.89209746  0.28397418    -0.14800
C1212       C  0.46851365  0.89138553  0.30122485    -0.14800
C1213       C  0.46657075  0.89093852  0.33179975     0.07300
C1214       C  0.44478418  0.89281443  0.34480928    -0.14800
H1215       H  0.40660360  0.89256420  0.33811766     0.11300
H1216       H  0.44940535  0.89090367  0.26048124     0.11300
H1217       H  0.48511868  0.88998175  0.29065719     0.11300
H1218       H  0.44266523  0.89228296  0.36831034     0.11300
C1219       C  0.29980184  0.85595838  0.35670674    -0.14800
C1220       C  0.31682954  0.87704063  0.33718128     0.07300
C1221       C  0.33674162  0.90302793  0.34813118    -0.14800
C1222       C  0.34108431  0.90719617  0.37818371    -0.14800
C1223       C  0.32489147  0.88574435  0.39771585     0.07300
C1224       C  0.30345606  0.86047334  0.38682385    -0.14800
H1225       H  0.28449338  0.83570713  0.34864488     0.11300
H1226       H  0.35035646  0.91942073  0.33340506     0.11300
H1227       H  0.35778403  0.92679415  0.38615722     0.11300
H1228       H  0.29091450  0.84356162  0.40153603     0.11300
C1229       C  0.34051717  0.90726789  0.12852435    -0.14800
C1230       C  0.32349480  0.88577039  0.14763794     0.07300
C1231       C  0.30180877  0.86091593  0.13627248    -0.14800
C1232       C  0.29879020  0.85675698  0.10608872    -0.14800
C1233       C  0.31675093  0.87780107  0.08703698     0.07300
C1234       C  0.33686194  0.90346185  0.09841601    -0.14800
H1235       H  0.35740708  0.92655051  0.13688490     0.11300
H1236       H  0.28863003  0.84399346  0.15066916     0.11300
H1237       H  0.28328289  0.83675568  0.09762946     0.11300
H1238       H  0.35115467  0.91979977  0.08402860     0.11300
C1239       C  0.41235643  0.82838576  0.22018890    -0.14800
C1240       C  0.39300543  0.83047097  0.20228801     0.07300
C1241       C  0.39533483  0.82937165  0.17186774    -0.14800
C1242       C  0.41800365  0.82882047  0.15959638    -0.14800
C1243       C  0.43912643  0.83022374  0.17752666     0.07300
C1244       C  0.43547467  0.82870275  0.20791832    -0.14800
H1245       H  0.41131633  0.82965054  0.24371107     0.11300
H1246       H  0.38086274  0.83121380  0.15761212     0.11300
H1247       H  0.42051519  0.83045779  0.13609769     0.11300
H1248       H  0.45158137  0.83004560  0.22219505     0.11300
Fe1249     Fe  0.31605625  0.88281932  0.74254568     1.65800
Fe1250     Fe  0.37876095  0.89547786  0.72032868     1.73200
Fe1251     Fe  0.34237100  0.84398170  0.76719727     1.54400
O1252       O  0.31892128  0.84927076  0.79919079    -0.83100
O1253       O  0.37374197  0.86047801  0.70006699    -0.81500
O1254       O  0.31879437  0.88778029  0.78717318    -0.85700
O1255       O  0.28515460  0.84067541  0.74506962    -0.80500
O1256       O  0.37752337  0.87075622  0.78991474    -0.82300
O1257       O  0.35742546  0.90046974  0.68570454    -0.85000
C1258       C  0.28519803  0.81787027  0.74214870     0.95700
C1259       C  0.31774332  0.87071968  0.80608932     1.03200
O1260       O  0.34565254  0.87410088  0.74316964    -1.14000
O1261       O  0.38544261  0.93126143  0.73948891    -0.76400
O1262       O  0.34315284  0.92602258  0.73982501    -0.79900
O1263       O  0.30709868  0.81644769  0.74531844    -0.80600
C1264       C  0.36938786  0.94098200  0.74274708     0.94600
O1265       O  0.31271094  0.87846930  0.69790999    -0.78600
O1266       O  0.40464296  0.89311013  0.75208834    -0.83800
C1267       C  0.37565155  0.84173375  0.71360030     0.97300
C1268       C  0.40134584  0.88530432  0.77866828     1.03200
O1269       O  0.36639130  0.83461677  0.73941139    -0.79400
C1270       C  0.33185793  0.88898497  0.67902704     1.01500
Fe1271     Fe  0.31707831  0.88368215  0.99252554     1.65800
Fe1272     Fe  0.37918313  0.89452967  0.97020072     1.73200
Fe1273     Fe  0.34350921  0.84472488  0.51828059     1.54400
O1274       O  0.32013381  0.85066220  0.54975077    -0.83100
O1275       O  0.37319213  0.85869881  0.95102334    -0.81500
O1276       O  0.32075385  0.88939026  0.53720121    -0.85700
O1277       O  0.28571204  0.84167023  0.99564950    -0.80500
O1278       O  0.37880687  0.87169449  0.54059354    -0.82300
O1279       O  0.35795494  0.89908931  0.93517941    -0.85000
C1280       C  0.28555491  0.81873230  0.99291903     0.95700
C1281       C  0.31914448  0.87226155  0.55631932     1.03200
O1282       O  0.34619692  0.87429962  0.99347515    -1.14000
O1283       O  0.38681510  0.93115247  0.98805182    -0.76400
O1284       O  0.34490092  0.92678408  0.98939661    -0.79900
O1285       O  0.30827293  0.81726238  0.49655174    -0.80600
C1286       C  0.37171408  0.94171725  0.49039177     0.94600
O1287       O  0.31342903  0.87876864  0.94791768    -0.78600
O1288       O  0.40581361  0.89312453  0.50233975    -0.83800
C1289       C  0.37540330  0.84049221  0.96526213     0.97300
C1290       C  0.40261054  0.88592824  0.52915851     1.03200
O1291       O  0.36639485  0.83416830  0.99122910    -0.79400
C1292       C  0.33238083  0.88828812  0.92878683     1.01500
Fe1293     Fe  0.43441196  0.11760247  0.51303894     1.65800
Fe1294     Fe  0.48561825  0.10675592  0.53576376     1.73200
Fe1295     Fe  0.49926552  0.15764210  0.98827035     1.54400
O1296       O  0.46971816  0.15168997  0.95703567    -0.83100
O1297       O  0.51583779  0.14243905  0.55491370    -0.81500
O1298       O  0.43227876  0.11202972  0.96859804    -0.85700
O1299       O  0.44502529  0.15960122  0.50962944    -0.80500
O1300       O  0.50769183  0.13119127  0.96549293    -0.82300
O1301       O  0.46001668  0.10257713  0.57079762    -0.85000
C1302       C  0.46771012  0.18273330  0.51226797     0.95700
C1303       C  0.44784189  0.12956368  0.94978831     1.03200
O1304       O  0.47298710  0.12717220  0.51260531    -1.14000
O1305       O  0.45636481  0.07017720  0.51797354    -0.76400
O1306       O  0.41888787  0.07457507  0.51644957    -0.79900
O1307       O  0.49125250  0.18450508  0.50991470    -0.80600
C1308       C  0.43052454  0.05993576  0.51433899     0.94600
O1309       O  0.43552199  0.12254166  0.55768904    -0.78600
O1310       O  0.51323211  0.10887263  0.00297062    -0.83800
C1311       C  0.53616344  0.16084119  0.54072128     0.97300
C1312       C  0.51708301  0.11656159  0.97627143     1.03200
O1313       O  0.53335143  0.16743804  0.51492911    -0.79400
C1314       C  0.44505272  0.11318724  0.57696966     1.01500
Fe1315     Fe  0.43326210  0.11715086  0.76311232     1.65800
Fe1316     Fe  0.48472429  0.10597697  0.78437164     1.73200
Fe1317     Fe  0.49791952  0.15727700  0.73773260     1.54400
O1318       O  0.46811793  0.15179114  0.70693449    -0.83100
O1319       O  0.51560481  0.14142153  0.80333879    -0.81500
O1320       O  0.43060847  0.11209696  0.71846990    -0.85700
O1321       O  0.44368599  0.15901433  0.76036404    -0.80500
O1322       O  0.50642625  0.13123840  0.71399864    -0.82300
O1323       O  0.46007916  0.10204635  0.82023051    -0.85000
C1324       C  0.46632143  0.18206700  0.76335492     0.95700
C1325       C  0.44611330  0.12976630  0.69972019     1.03200
O1326       O  0.47186486  0.12664440  0.76192863    -1.14000
O1327       O  0.45479156  0.06919915  0.76744504    -0.76400
O1328       O  0.41765773  0.07419492  0.76598861    -0.79900
O1329       O  0.48988862  0.18390843  0.76079124    -0.80600
C1330       C  0.42886966  0.05913951  0.76484034     0.94600
O1331       O  0.43486998  0.12148383  0.80787204    -0.78600
O1332       O  0.51119589  0.10770959  0.75078143    -0.83800
C1333       C  0.53568552  0.16035067  0.78935892     0.97300
C1334       C  0.51536311  0.11601858  0.72429333     1.03200
O1335       O  0.53256217  0.16734619  0.76387735    -0.79400
C1336       C  0.44493688  0.11234917  0.82681648     1.01500
Fe1337     Fe  0.68559079  0.11756973  0.61926537     1.65800
Fe1338     Fe  0.62297786  0.10472810  0.59615960     1.73200
Fe1339     Fe  0.65805690  0.15500901  0.64477759     1.54400
O1340       O  0.68096186  0.14903821  0.67690307    -0.83100
O1341       O  0.62813315  0.14008810  0.57669514    -0.81500
O1342       O  0.68252382  0.11148473  0.66370842    -0.85700
O1343       O  0.71607417  0.15966180  0.62321456    -0.80500
O1344       O  0.62238240  0.12745942  0.66627653    -0.82300
O1345       O  0.64497053  0.10051304  0.56176061    -0.85000
C1346       C  0.71564019  0.18227020  0.62058668     0.95700
C1347       C  0.68308985  0.12797492  0.68307459     1.03200
O1348       O  0.65559663  0.12573056  0.61996665    -1.14000
O1349       O  0.61647183  0.06882241  0.61474940    -0.76400
O1350       O  0.65893725  0.07445327  0.61528307    -0.79900
O1351       O  0.69358652  0.18333137  0.62398532    -0.80600
C1352       C  0.63273379  0.05933297  0.61811312     0.94600
O1353       O  0.68949778  0.12322975  0.57477244    -0.78600
O1354       O  0.59627713  0.10636632  0.62731428    -0.83800
C1355       C  0.62609069  0.15858980  0.59063507     0.97300
C1356       C  0.59886244  0.11358992  0.65406496     1.03200
O1357       O  0.63464865  0.16492476  0.61680009    -0.79400
C1358       C  0.67063176  0.11280975  0.55550597     1.01500
Fe1359     Fe  0.68531970  0.11759605  0.86939670     1.65800
Fe1360     Fe  0.62296130  0.10580329  0.84601311     1.73200
Fe1361     Fe  0.65946962  0.15702394  0.89332739     1.54400
O1362       O  0.68296988  0.15188320  0.92536233    -0.83100
O1363       O  0.62823678  0.14113912  0.82623758    -0.81500
O1364       O  0.68260110  0.11300535  0.91406755    -0.85700
O1365       O  0.71646047  0.15964226  0.87203491    -0.80500
O1366       O  0.62424543  0.13048887  0.91596176    -0.82300
O1367       O  0.64445534  0.10125781  0.81146328    -0.85000
C1368       C  0.71654841  0.18245749  0.86859151     0.95700
C1369       C  0.68430132  0.13062010  0.93266533     1.03200
O1370       O  0.65591131  0.12664754  0.86945408    -1.14000
O1371       O  0.61573867  0.06931265  0.86383357    -0.76400
O1372       O  0.65798301  0.07454131  0.86647392    -0.79900
O1373       O  0.69471424  0.18406962  0.87129689    -0.80600
C1374       C  0.63163575  0.05935884  0.86688420     0.94600
O1375       O  0.68894420  0.12152880  0.82470503    -0.78600
O1376       O  0.59714131  0.10792488  0.87795822    -0.83800
C1377       C  0.62646146  0.15991876  0.83983420     0.97300
C1378       C  0.60044531  0.11581085  0.90455625     1.03200
O1379       O  0.63558248  0.16675233  0.86573682    -0.79400
C1380       C  0.67002368  0.11166083  0.80542923     1.01500
Fe1381     Fe  0.56892031  0.88317259  0.63683526     1.65800
Fe1382     Fe  0.51828061  0.89486708  0.65967508     1.73200
Fe1383     Fe  0.50389219  0.84435792  0.61172843     1.54400
O1384       O  0.53313519  0.84952652  0.58059704    -0.83100
O1385       O  0.48743354  0.85935647  0.67837872    -0.81500
O1386       O  0.57105582  0.88883671  0.59216113    -0.85700
O1387       O  0.55755001  0.84106715  0.63346177    -0.80500
O1388       O  0.49615211  0.87145656  0.58897538    -0.82300
O1389       O  0.54345850  0.89821359  0.69477875    -0.85000
C1390       C  0.53465863  0.81832961  0.63685683     0.95700
C1391       C  0.55514319  0.87144932  0.57332560     1.03200
O1392       O  0.53049518  0.87426559  0.63632502    -1.14000
O1393       O  0.54821638  0.93147894  0.64288755    -0.76400
O1394       O  0.58515638  0.92619066  0.64060726    -0.79900
O1395       O  0.51128857  0.81690777  0.63403643    -0.80600
C1396       C  0.57408924  0.94139901  0.64009491     0.94600
O1397       O  0.56803569  0.87837493  0.68155856    -0.78600
O1398       O  0.49129742  0.89377767  0.62692588    -0.83800
C1399       C  0.46695808  0.84128914  0.66399630     0.97300
C1400       C  0.48707213  0.88619873  0.60018965     1.03200
O1401       O  0.46970513  0.83474433  0.63817552    -0.79400
C1402       C  0.55855259  0.88773775  0.70087572     1.01500
Fe1403     Fe  0.56811274  0.88302335  0.88703975     1.65800
Fe1404     Fe  0.51770226  0.89528541  0.90861796     1.73200
Fe1405     Fe  0.50309632  0.84368484  0.86200172     1.56800
O1406       O  0.53231227  0.84924239  0.83035405    -0.83100
O1407       O  0.48756002  0.86030065  0.92870227    -0.81500
O1408       O  0.57067138  0.88817304  0.84251397    -0.85700
O1409       O  0.55718763  0.84106815  0.88391881    -0.80500
O1410       O  0.49456773  0.87001607  0.83890063    -0.82300
O1411       O  0.54379692  0.90034304  0.94365240    -0.85000
C1412       C  0.53441219  0.81824162  0.88721025     0.95700
C1413       C  0.55491673  0.87085390  0.82355474     1.03200
O1414       O  0.52970362  0.87403910  0.88604047    -1.14000
O1415       O  0.54691859  0.93106042  0.88963083    -0.76400
O1416       O  0.58411096  0.92613786  0.89020878    -0.79900
O1417       O  0.51097606  0.81661756  0.88440043    -0.80600
C1418       C  0.57278760  0.94095748  0.88690574     0.94600
O1419       O  0.56651972  0.87833150  0.93163244    -0.78600
O1420       O  0.48974348  0.89276749  0.87634255    -0.83800
C1421       C  0.46702457  0.84132467  0.91512649     0.97300
C1422       C  0.48536882  0.88475810  0.84977809     1.03200
O1423       O  0.46935840  0.83412429  0.88939971    -0.79400
C1424       C  0.55768171  0.88870682  0.95046577     1.01500
Fe1425     Fe  0.68509320  0.56884597  0.67748278     1.65800
Fe1426     Fe  0.62270821  0.51811270  0.70003492     1.73200
Fe1427     Fe  0.65900270  0.50381147  0.65234158     1.54400
O1428       O  0.68208068  0.53283236  0.62037357    -0.83100
O1429       O  0.62798669  0.48804938  0.71979926    -0.81500
O1430       O  0.68203521  0.57127277  0.63289353    -0.85700
O1431       O  0.71621011  0.55812494  0.67427318    -0.80500
O1432       O  0.62359413  0.49522094  0.63012122    -0.82300
O1433       O  0.64409271  0.54443083  0.73465174    -0.85000
C1434       C  0.71632561  0.53535362  0.67696606     0.95700
C1435       C  0.68311241  0.55544412  0.61375678     1.03200
O1436       O  0.65570034  0.53032726  0.67685040    -1.14000
O1437       O  0.61564866  0.54704266  0.68109852    -0.76400
O1438       O  0.65779541  0.58444475  0.68062558    -0.79900
O1439       O  0.69449466  0.51187813  0.67384252    -0.80600
C1440       C  0.63157817  0.57285434  0.67756582     0.94600
O1441       O  0.68872261  0.56772805  0.72217118    -0.78600
O1442       O  0.59681229  0.48988045  0.66844467    -0.83800
C1443       C  0.62603632  0.46756106  0.70579774     0.97300
C1444       C  0.59989493  0.48563033  0.64175181     1.03200
O1445       O  0.63530169  0.47011255  0.67993966    -0.79400
C1446       C  0.66966783  0.55880517  0.74121002     1.01500
Fe1447     Fe  0.68596363  0.56960309  0.92755317     1.65800
Fe1448     Fe  0.62388876  0.51802367  0.94994062     1.73200
Fe1449     Fe  0.66101606  0.50461094  0.90258283     1.54400
O1450       O  0.68422834  0.53397171  0.87088404    -0.83100
O1451       O  0.62954752  0.48816107  0.96955147    -0.81500
O1452       O  0.68280728  0.57178220  0.88298995    -0.85700
O1453       O  0.71759398  0.55953421  0.92445374    -0.80500
O1454       O  0.62577643  0.49547801  0.87981525    -0.82300
O1455       O  0.64500950  0.54407974  0.98483362    -0.85000
C1456       C  0.71806189  0.53696031  0.92741934     0.95700
C1457       C  0.68444175  0.55614405  0.86401560     1.03200
O1458       O  0.65699584  0.53085665  0.92687870    -1.14000
O1459       O  0.61636969  0.54692341  0.93183848    -0.76400
O1460       O  0.65818626  0.58468522  0.93071267    -0.79900
O1461       O  0.69637842  0.51330892  0.92465329    -0.80600
C1462       C  0.63184324  0.57288905  0.92894740     0.94600
O1463       O  0.68960324  0.56864631  0.97225014    -0.78600
O1464       O  0.59843301  0.48995667  0.91770094    -0.83800
C1465       C  0.62763272  0.46772077  0.95556957     0.97300
C1466       C  0.60190225  0.48563592  0.89108768     1.03200
O1467       O  0.63716056  0.47044142  0.92980528    -0.79400
C1468       C  0.67054243  0.55915087  0.99130259     1.01500
Fe1469     Fe  0.43401805  0.31679396  0.53320467     1.65800
Fe1470     Fe  0.48496411  0.37941944  0.51153378     1.73200
Fe1471     Fe  0.49884011  0.34223589  0.55865049     1.54400
O1472       O  0.46928069  0.31820225  0.58988463    -0.83100
O1473       O  0.51512953  0.37452363  0.99221139    -0.81500
O1474       O  0.43154341  0.31973194  0.57778771    -0.85700
O1475       O  0.44481138  0.28560302  0.53640148    -0.80500
O1476       O  0.50697825  0.37691369  0.58181765    -0.82300
O1477       O  0.45939533  0.35834123  0.97632982    -0.85000
C1478       C  0.46753950  0.28543370  0.53335800     0.95700
C1479       C  0.44717111  0.31807212  0.59679234     1.03200
O1480       O  0.47250821  0.34614962  0.53427063    -1.14000
O1481       O  0.45532968  0.38626505  0.52885820    -0.76400
O1482       O  0.41817447  0.34404073  0.52984341    -0.79900
O1483       O  0.49103644  0.30731509  0.53610587    -0.80600
C1484       C  0.42939765  0.37037879  0.53125813     0.94600
O1485       O  0.43546208  0.31360578  0.98865875    -0.78600
O1486       O  0.51193922  0.40469854  0.54447946    -0.83800
C1487       C  0.53594434  0.37655579  0.50632944     0.97300
C1488       C  0.51600909  0.40091076  0.57108636     1.03200
O1489       O  0.53323047  0.36688345  0.53202488    -0.79400
C1490       C  0.44493572  0.33277540  0.96969797     1.01500
Fe1491     Fe  0.43346953  0.31703261  0.78339140     1.65800
Fe1492     Fe  0.48481566  0.37921988  0.76142193     1.73200
Fe1493     Fe  0.49842146  0.34156779  0.80794405     1.54400
O1494       O  0.46914255  0.31790418  0.83940770    -0.83100
O1495       O  0.51433955  0.37337440  0.74139873    -0.81500
O1496       O  0.43160384  0.32009065  0.82805845    -0.85700
O1497       O  0.44356271  0.28528195  0.78626617    -0.80500
O1498       O  0.50758916  0.37648986  0.83122954    -0.82300
O1499       O  0.45857887  0.35835053  0.72648642    -0.85000
C1500       C  0.46613516  0.28480094  0.78320024     0.95700
C1501       C  0.44731374  0.31812309  0.84674087     1.03200
O1502       O  0.47212498  0.34592920  0.78409521    -1.14000
O1503       O  0.45614357  0.38688654  0.78011189    -0.76400
O1504       O  0.41841800  0.34501543  0.78049417    -0.79900
O1505       O  0.48974748  0.30657733  0.78534823    -0.80600
C1506       C  0.43020042  0.37133963  0.78310822     0.94600
O1507       O  0.43449018  0.31362070  0.73865636    -0.78600
O1508       O  0.51305343  0.40428653  0.79376205    -0.83800
C1509       C  0.53486688  0.37518322  0.75511539     0.97300
C1510       C  0.51735722  0.40050985  0.82030576     1.03200
O1511       O  0.53239044  0.36562932  0.78081748    -0.79400
C1512       C  0.44396794  0.33281588  0.71972274     1.01500
Fe1513     Fe  0.56719963  0.68415869  0.65917054     1.65800
Fe1514     Fe  0.51624539  0.62180504  0.63620886     1.73200
Fe1515     Fe  0.50234743  0.65841602  0.68396005     1.54400
O1516       O  0.53164144  0.68209627  0.71541991    -0.83100
O1517       O  0.48592739  0.62702383  0.61707203    -0.81500
O1518       O  0.56955117  0.68082811  0.70377678    -0.85700
O1519       O  0.55642453  0.71525824  0.66284288    -0.80500
O1520       O  0.49428501  0.62348285  0.70648515    -0.82300
O1521       O  0.54186384  0.64346546  0.60144768    -0.85000
C1522       C  0.53373234  0.71553243  0.66000772     0.95700
C1523       C  0.55394138  0.68272581  0.72256642     1.03200
O1524       O  0.52871689  0.65480630  0.65954610    -1.14000
O1525       O  0.54577094  0.61461635  0.65334802    -0.76400
O1526       O  0.58281961  0.65697252  0.65522059    -0.79900
O1527       O  0.51019818  0.69363547  0.66221413    -0.80600
C1528       C  0.57169911  0.63065164  0.65581478     0.94600
O1529       O  0.56624022  0.68802896  0.61453404    -0.78600
O1530       O  0.48881627  0.59601267  0.66860794    -0.83800
C1531       C  0.46550792  0.62502631  0.63107774     0.97300
C1532       C  0.48490171  0.59958178  0.69533758     1.03200
O1533       O  0.46817465  0.63424204  0.65697061    -0.79400
C1534       C  0.55708323  0.66904482  0.59530699     1.01500
Fe1535     Fe  0.56796708  0.68496098  0.90912805     1.65800
Fe1536     Fe  0.51648024  0.62264021  0.88688284     1.73200
Fe1537     Fe  0.50351039  0.65897982  0.93594924     1.54400
O1538       O  0.53336157  0.68251553  0.96698657    -0.83100
O1539       O  0.48575308  0.62788443  0.86878141    -0.81500
O1540       O  0.57132091  0.68205128  0.95356267    -0.85700
O1541       O  0.55705721  0.71590420  0.91284983    -0.80500
O1542       O  0.49573854  0.62374873  0.95790892    -0.82300
O1543       O  0.54145205  0.64409411  0.85155142    -0.85000
C1544       C  0.53423894  0.71608069  0.91120834     0.95700
C1545       C  0.55599483  0.68343058  0.97303746     1.03200
O1546       O  0.52942197  0.65561219  0.91039679    -1.14000
O1547       O  0.54621132  0.61561807  0.90364935    -0.76400
O1548       O  0.58361245  0.65771857  0.90520845    -0.79900
O1549       O  0.51082151  0.69432481  0.91484838    -0.80600
C1550       C  0.57210524  0.63139586  0.90688680     0.94600
O1551       O  0.56622747  0.68860976  0.86458955    -0.78600
O1552       O  0.48951725  0.59673682  0.91942979    -0.83800
C1553       C  0.46569820  0.62603257  0.88345276     0.97300
C1554       C  0.48586903  0.59994574  0.94632091     1.03200
O1555       O  0.46890082  0.63505814  0.90948040    -0.79400
C1556       C  0.55655576  0.66965857  0.84537368     1.01500
Fe1557     Fe  0.31541009  0.43231664  0.55258912     1.65800
Fe1558     Fe  0.37772062  0.48362125  0.57490565     1.73200
Fe1559     Fe  0.34036426  0.49728482  0.52788318     1.54400
O1560       O  0.31775939  0.46908555  0.99619801    -0.83100
O1561       O  0.37208007  0.51343922  0.59466061    -0.81500
O1562       O  0.31782262  0.42990547  0.50791655    -0.85700
O1563       O  0.28392220  0.44258185  0.54995119    -0.80500
O1564       O  0.37552966  0.50639400  0.50490849    -0.82300
O1565       O  0.35686577  0.45771249  0.60984038    -0.85000
C1566       C  0.28363134  0.46519212  0.55345876     0.95700
C1567       C  0.31668187  0.44656518  0.98905576     1.03200
O1568       O  0.34452394  0.47094489  0.55184927    -1.14000
O1569       O  0.38512900  0.45468653  0.55647442    -0.76400
O1570       O  0.34315731  0.41707265  0.55536469    -0.79900
O1571       O  0.30527656  0.48880033  0.55037886    -0.80600
C1572       C  0.36946249  0.42879577  0.55299357     0.94600
O1573       O  0.31221865  0.43373562  0.59723655    -0.78600
O1574       O  0.40295961  0.51157942  0.54274799    -0.83800
C1575       C  0.37381353  0.53387712  0.58085830     0.97300
C1576       C  0.39945679  0.51593539  0.51615907     1.03200
O1577       O  0.36436796  0.53129589  0.55507115    -0.79400
C1578       C  0.33130909  0.44343884  0.61630325     1.01500
Fe1579     Fe  0.31678386  0.43432690  0.80224416     1.65800
Fe1580     Fe  0.37847268  0.48546413  0.82664966     1.73200
Fe1581     Fe  0.34173027  0.49971647  0.77922661     1.54400
O1582       O  0.31872107  0.47105876  0.74687472    -0.83100
O1583       O  0.37265663  0.51521120  0.84629103    -0.81500
O1584       O  0.32048770  0.43322859  0.75765171    -0.85700
O1585       O  0.28513815  0.44451222  0.79932442    -0.80500
O1586       O  0.37699380  0.50901222  0.75682760    -0.82300
O1587       O  0.35654092  0.45935013  0.86114053    -0.85000
C1588       C  0.28466193  0.46699991  0.80328390     0.95700
C1589       C  0.31860984  0.44911909  0.73919959     1.03200
O1590       O  0.34571092  0.47303803  0.80285861    -1.14000
O1591       O  0.38647266  0.45656959  0.80910182    -0.76400
O1592       O  0.34459882  0.41915616  0.80523810    -0.79900
O1593       O  0.30634678  0.49069503  0.80117584    -0.80600
C1594       C  0.37099646  0.43074352  0.80502972     0.94600
O1595       O  0.31237198  0.43421853  0.84683064    -0.78600
O1596       O  0.40434122  0.51337580  0.79453669    -0.83800
C1597       C  0.37429309  0.53573766  0.83282347     0.97300
C1598       C  0.40084002  0.51773648  0.76789744     1.03200
O1599       O  0.36519041  0.53344430  0.80693516    -0.79400
C1600       C  0.33084724  0.44387635  0.86656420     1.01500
Fe1601     Fe  0.11589771  0.43092729  0.57605223     1.65800
Fe1602     Fe  0.10518958  0.48212613  0.55285230     1.73200
Fe1603     Fe  0.15559769  0.49611873  0.60076855     1.54400
O1604       O  0.15024536  0.46705325  0.63229424    -0.83100
O1605       O  0.14083483  0.51226316  0.53359906    -0.81500
O1606       O  0.11100078  0.42898457  0.62068218    -0.85700
O1607       O  0.15799263  0.44183106  0.57896484    -0.80500
O1608       O  0.12868338  0.50412531  0.62323708    -0.82300
O1609       O  0.10065087  0.45626096  0.51813835    -0.85000
C1610       C  0.18109419  0.46460455  0.57666199     0.95700
C1611       C  0.12858821  0.44473278  0.63942206     1.03200
O1612       O  0.12553425  0.46957623  0.57627329    -1.14000
O1613       O  0.06867884  0.45314096  0.57064726    -0.76400
O1614       O  0.07272291  0.41547454  0.57335019    -0.79900
O1615       O  0.18284351  0.48815606  0.57914452    -0.80600
C1616       C  0.05824661  0.42736035  0.57483692     0.94600
O1617       O  0.12003772  0.43129042  0.53131605    -0.78600
O1618       O  0.10723438  0.50976785  0.58499495    -0.83800
C1619       C  0.15905060  0.53287401  0.54773606     0.97300
C1620       C  0.11442879  0.51363520  0.61179755     1.03200
O1621       O  0.16553580  0.53029279  0.57371496    -0.79400
C1622       C  0.11071761  0.44084308  0.51203371     1.01500
Fe1623     Fe  0.11719898  0.43310596  0.82576509     1.65800
Fe1624     Fe  0.10682897  0.48463855  0.80308707     1.73200
Fe1625     Fe  0.15661666  0.49778337  0.85170840     1.54400
O1626       O  0.15011842  0.46809627  0.88313540    -0.83100
O1627       O  0.14282587  0.51484961  0.78462381    -0.81500
O1628       O  0.11109438  0.43030490  0.87015989    -0.85700
O1629       O  0.15901664  0.44349394  0.82971293    -0.80500
O1630       O  0.12983933  0.50616057  0.87384178    -0.82300
O1631       O  0.10293473  0.45923883  0.76800362    -0.85000
C1632       C  0.18209109  0.46621113  0.82729759     0.95700
C1633       C  0.12821178  0.44562437  0.88946772     1.03200
O1634       O  0.12676138  0.47171600  0.82668845    -1.14000
O1635       O  0.06980949  0.45528688  0.81972061    -0.76400
O1636       O  0.07430562  0.41784398  0.82156498    -0.79900
O1637       O  0.18388965  0.48973486  0.83022262    -0.80600
C1638       C  0.05946004  0.42933145  0.82238007     0.94600
O1639       O  0.12255143  0.43448592  0.78128550    -0.78600
O1640       O  0.10834548  0.51188825  0.83567374    -0.83800
C1641       C  0.16114652  0.53517223  0.79897202     0.97300
C1642       C  0.11549760  0.51563879  0.86253057     1.03200
O1643       O  0.16737338  0.53230810  0.82495666    -0.79400
C1644       C  0.11327135  0.44402283  0.76197618     1.01500
Fe1645     Fe  0.11810839  0.68382728  0.71673614     1.65800
Fe1646     Fe  0.10595345  0.62141883  0.73989032     1.73200
Fe1647     Fe  0.15745458  0.65779198  0.69299762     1.54400
O1648       O  0.15210843  0.68091891  0.66069497    -0.83100
O1649       O  0.14107570  0.62667543  0.76016964    -0.81500
O1650       O  0.11363211  0.68138861  0.67204536    -0.85700
O1651       O  0.16017990  0.71496203  0.71413874    -0.80500
O1652       O  0.13094933  0.62246567  0.67051124    -0.82300
O1653       O  0.10109615  0.64281546  0.77431437    -0.85000
C1654       C  0.18310051  0.71518065  0.71720653     0.95700
C1655       C  0.13123023  0.68302636  0.65350128     1.03200
O1656       O  0.12706053  0.65436699  0.71660592    -1.14000
O1657       O  0.06977682  0.61422832  0.72127245    -0.76400
O1658       O  0.07483995  0.65640430  0.71929954    -0.79900
O1659       O  0.18469931  0.69332076  0.71466028    -0.80600
C1660       C  0.05972700  0.63001913  0.71814520     0.94600
O1661       O  0.12241292  0.68737077  0.76149202    -0.78600
O1662       O  0.10814316  0.59549887  0.70831773    -0.83800
C1663       C  0.16008884  0.62505718  0.74693286     0.97300
C1664       C  0.11598090  0.59871329  0.68178632     1.03200
O1665       O  0.16714703  0.63414389  0.72106629    -0.79400
C1666       C  0.11245541  0.66841615  0.78066042     1.01500
Fe1667     Fe  0.11927104  0.68543071  0.96692810     1.65800
Fe1668     Fe  0.10796384  0.62376586  0.99172315     1.73200
Fe1669     Fe  0.15792020  0.65872540  0.94302039     1.54400
O1670       O  0.15242162  0.68188259  0.91074242    -0.83100
O1671       O  0.14351595  0.62886665  0.51071457    -0.81500
O1672       O  0.11347201  0.68109531  0.92236919    -0.85700
O1673       O  0.16124363  0.71617696  0.96326858    -0.80500
O1674       O  0.13042362  0.62334055  0.92129033    -0.82300
O1675       O  0.10477326  0.64647078  0.52551175    -0.85000
C1676       C  0.18404315  0.71624444  0.96675872     0.95700
C1677       C  0.13066510  0.68234520  0.90354570     1.03200
O1678       O  0.12830601  0.65603490  0.96746342    -1.14000
O1679       O  0.07134672  0.61636101  0.97436167    -0.76400
O1680       O  0.07629855  0.65841698  0.97079126    -0.79900
O1681       O  0.18563803  0.69434856  0.96425938    -0.80600
C1682       C  0.06135831  0.63206164  0.97015632     0.94600
O1683       O  0.12522260  0.69072695  0.51134249    -0.78600
O1684       O  0.10890961  0.59707751  0.96003058    -0.83800
C1685       C  0.16127117  0.62599879  0.99672470     0.97300
C1686       C  0.11582172  0.59980609  0.93316127     1.03200
O1687       O  0.16767256  0.63464050  0.97061743    -0.79400
C1688       C  0.11572434  0.67224062  0.53098053     1.01500
Fe1689     Fe  0.88336874  0.56778006  0.69989916     1.65800
Fe1690     Fe  0.89314463  0.51556274  0.67868623     1.73200
Fe1691     Fe  0.84350417  0.50359872  0.72683527     1.54400
O1692       O  0.85044355  0.53385203  0.75766721    -0.83100
O1693       O  0.85697939  0.48528301  0.66016390    -0.81500
O1694       O  0.88965587  0.57112498  0.74440856    -0.85700
O1695       O  0.84160686  0.55775571  0.70341780    -0.80500
O1696       O  0.87004304  0.49510527  0.74950099    -0.82300
O1697       O  0.89764217  0.54074112  0.64313105    -0.85000
C1698       C  0.81838396  0.53511000  0.70135038     0.95700
C1699       C  0.87272489  0.55601633  0.76388675     1.03200
O1700       O  0.87336804  0.52906586  0.70155449    -1.14000
O1701       O  0.93015279  0.54489507  0.69589895    -0.76400
O1702       O  0.92622892  0.58269714  0.69601048    -0.79900
O1703       O  0.81634116  0.51156267  0.70494683    -0.80600
C1704       C  0.94072491  0.57092342  0.69838031     0.94600
O1705       O  0.87811083  0.56582086  0.65528863    -0.78600
O1706       O  0.89100272  0.48838941  0.71160441    -0.83800
C1707       C  0.83827426  0.46540134  0.67464860     0.97300
C1708       C  0.88385102  0.48495294  0.73841368     1.03200
O1709       O  0.83228065  0.46875513  0.70053362    -0.79400
C1710       C  0.88757102  0.55606277  0.63641816     1.01500
Fe1711     Fe  0.88560259  0.56987777  0.95015752     1.65800
Fe1712     Fe  0.89591795  0.51809953  0.92835844     1.73200
Fe1713     Fe  0.84499889  0.50515202  0.97493797     1.54400
O1714       O  0.85145127  0.53535256  0.50586656    -0.83100
O1715       O  0.86035112  0.48830437  0.90866232    -0.81500
O1716       O  0.89064353  0.57203788  0.99479471    -0.85700
O1717       O  0.84379101  0.55986417  0.95282829    -0.80500
O1718       O  0.87164649  0.49705781  0.49793624    -0.82300
O1719       O  0.90116383  0.54394643  0.89316089    -0.85000
C1720       C  0.82067511  0.53727467  0.94970920     0.95700
C1721       C  0.87358353  0.55713763  0.51331226     1.03200
O1722       O  0.87561329  0.53116298  0.95092625    -1.14000
O1723       O  0.93236986  0.54697276  0.94655870    -0.76400
O1724       O  0.92844398  0.58475660  0.94737312    -0.79900
O1725       O  0.81870909  0.51364669  0.95210619    -0.80600
C1726       C  0.94292951  0.57294904  0.94927349     0.94600
O1727       O  0.88140322  0.56881138  0.90542545    -0.78600
O1728       O  0.89299470  0.49031921  0.96109903    -0.83800
C1729       C  0.84167902  0.46801044  0.92264825     0.97300
C1730       C  0.88506976  0.48638011  0.98769269     1.03200
O1731       O  0.83484751  0.47087124  0.94829568    -0.79400
C1732       C  0.89091545  0.55913450  0.88649737     1.01500
Fe1733     Fe  0.88157052  0.31726010  0.59570901     1.65800
Fe1734     Fe  0.89339885  0.37986238  0.61772740     1.73200
Fe1735     Fe  0.84226115  0.34285081  0.57000579     1.54400
O1736       O  0.84870721  0.32015212  0.53796799    -0.83100
O1737       O  0.85801916  0.37470175  0.63711522    -0.81500
O1738       O  0.88681008  0.31963028  0.55122672    -0.85700
O1739       O  0.83972754  0.28597066  0.59274999    -0.80500
O1740       O  0.86873188  0.37843420  0.54777432    -0.82300
O1741       O  0.89796874  0.35883305  0.65285043    -0.85000
C1742       C  0.81661009  0.28545063  0.59471006     0.95700
C1743       C  0.87010855  0.31862233  0.53185566     1.03200
O1744       O  0.87244104  0.34661965  0.59460301    -1.14000
O1745       O  0.92987492  0.38685206  0.59990974    -0.76400
O1746       O  0.92461272  0.34457821  0.59887644    -0.79900
O1747       O  0.81469945  0.30703354  0.59106951    -0.80600
C1748       C  0.93979201  0.37087819  0.59721809     0.94600
O1749       O  0.87694834  0.31415946  0.64029399    -0.78600
O1750       O  0.89142955  0.40557940  0.58562645    -0.83800
C1751       C  0.83857527  0.37542556  0.62363162     0.97300
C1752       C  0.88356444  0.40224983  0.55905144     1.03200
O1753       O  0.83166297  0.36601325  0.59779344    -0.79400
C1754       C  0.88688874  0.33328542  0.65930481     1.01500
Fe1755     Fe  0.88367300  0.31694321  0.84541836     1.65800
Fe1756     Fe  0.89558479  0.37939452  0.86808929     1.73200
Fe1757     Fe  0.84395275  0.34231069  0.82142838     1.54400
O1758       O  0.84917228  0.31873931  0.78976522    -0.83100
O1759       O  0.86052806  0.37434209  0.88826382    -0.81500
O1760       O  0.88858306  0.32014364  0.80070981    -0.85700
O1761       O  0.84170280  0.28562235  0.84251142    -0.80500
O1762       O  0.87024973  0.37736984  0.79854104    -0.82300
O1763       O  0.90062596  0.35812613  0.90272338    -0.85000
C1764       C  0.81871026  0.28523720  0.84556085     0.95700
C1765       C  0.87094397  0.31855825  0.78218379     1.03200
O1766       O  0.87440535  0.34615732  0.84525893    -1.14000
O1767       O  0.93151616  0.38639135  0.84898759    -0.76400
O1768       O  0.92671813  0.34430895  0.84824942    -0.79900
O1769       O  0.81700185  0.30706437  0.84344057    -0.80600
C1770       C  0.94144539  0.37054437  0.84539962     0.94600
O1771       O  0.87937992  0.31342539  0.89013225    -0.78600
O1772       O  0.89286658  0.40489474  0.83620194    -0.83800
C1773       C  0.84172487  0.37602059  0.87452527     0.97300
C1774       C  0.88475469  0.40130014  0.80968692     1.03200
O1775       O  0.83447763  0.36631975  0.84888102    -0.79400
C1776       C  0.88939329  0.33253149  0.90922209     1.01500
C1777       C  0.90313725  0.33797643  0.99017245    -0.14800
C1778       C  0.87723326  0.31770991  0.00081496     0.07300
C1779       C  0.85663534  0.30004895  0.98109842    -0.14800
C1780       C  0.86155680  0.30335526  0.95103495    -0.14800
C1781       C  0.88673330  0.32506095  0.94035861     0.07300
C1782       C  0.90769366  0.34195134  0.96015938    -0.14800
H1783       H  0.91914329  0.35206893  0.00506036     0.11300
H1784       H  0.83644238  0.28445151  0.98893548     0.11300
H1785       H  0.84498851  0.29029526  0.93614326     0.11300
H1786       H  0.92719017  0.35889638  0.95239995     0.11300
C1787       C  0.85757448  0.30780096  0.70145539    -0.14800
C1788       C  0.88403222  0.32570400  0.69026578     0.07300
C1789       C  0.90672202  0.33861384  0.70935512    -0.14800
C1790       C  0.90279850  0.33427034  0.73945651    -0.14800
C1791       C  0.87599956  0.31778650  0.75078695     0.07300
C1792       C  0.85351442  0.30419321  0.73151430    -0.14800
H1793       H  0.83978778  0.29799921  0.68703211     0.11300
H1794       H  0.92725157  0.35267297  0.70103025     0.11300
H1795       H  0.92037292  0.34531923  0.75394654     0.11300
H1796       H  0.83264520  0.29161268  0.73977939     0.11300
C1797       C  0.88942539  0.46987454  0.53644880    -0.14800
C1798       C  0.89138017  0.46888112  0.50593917     0.07300
C1799       C  0.89306386  0.44635882  0.99357593    -0.14800
C1800       C  0.89349893  0.42654542  0.51090664    -0.14800
C1801       C  0.88997656  0.42677395  0.54122180     0.07300
C1802       C  0.88900361  0.44915963  0.55394460    -0.14800
H1803       H  0.88696813  0.48601765  0.54669876     0.11300
H1804       H  0.89374186  0.44465478  0.97009056     0.11300
H1805       H  0.89275385  0.40817584  0.00062753     0.11300
H1806       H  0.88600945  0.44966015  0.57723149     0.11300
C1807       C  0.82978188  0.43597632  0.88022444    -0.14800
C1808       C  0.83120885  0.44001387  0.91053421     0.07300
C1809       C  0.82968959  0.41913939  0.92892564    -0.14800
C1810       C  0.83030001  0.39631152  0.91717759    -0.14800
C1811       C  0.83143321  0.39357610  0.88685876     0.07300
C1812       C  0.82941395  0.41266250  0.86848595    -0.14800
H1813       H  0.83124787  0.45191423  0.86563780     0.11300
H1814       H  0.83125623  0.42200253  0.95238539     0.11300
H1815       H  0.83211309  0.38202811  0.93174411     0.11300
H1816       H  0.83071642  0.41126886  0.84500812     0.11300
C1817       C  0.86403459  0.56191301  0.84454936    -0.14800
C1818       C  0.88869924  0.56425642  0.85533854     0.07300
C1819       C  0.90945945  0.56775562  0.83564717    -0.14800
C1820       C  0.90510306  0.56767298  0.80558860    -0.14800
C1821       C  0.87957812  0.56311833  0.79483416     0.07300
C1822       C  0.85928481  0.56080126  0.81448519    -0.14800
H1823       H  0.84762441  0.55888787  0.85934856     0.11300
H1824       H  0.92858378  0.56948372  0.84350580     0.11300
H1825       H  0.92084822  0.56905950  0.79074812     0.11300
H1826       H  0.83937557  0.55699998  0.80657426     0.11300
C1827       C  0.86148834  0.55917812  0.59382926    -0.14800
C1828       C  0.88598701  0.56167617  0.60530219     0.07300
C1829       C  0.90764774  0.56644050  0.58631224    -0.14800
C1830       C  0.90442983  0.56758004  0.55618870    -0.14800
C1831       C  0.87917358  0.56301200  0.54462317     0.07300
C1832       C  0.85790095  0.55931344  0.56364140    -0.14800
H1833       H  0.84442820  0.55522699  0.60810454     0.11300
H1834       H  0.92667302  0.56835046  0.59474101     0.11300
H1835       H  0.92090855  0.56997520  0.54183962     0.11300
H1836       H  0.83817018  0.55544101  0.55508769     0.11300
C1837       C  0.89241502  0.44532753  0.74401720    -0.14800
C1838       C  0.88973955  0.46676022  0.75681353     0.07300
C1839       C  0.88906982  0.46830055  0.78738877    -0.14800
C1840       C  0.88962632  0.44800047  0.80475656    -0.14800
C1841       C  0.89026987  0.42550858  0.79183150     0.07300
C1842       C  0.89234388  0.42468899  0.76136644    -0.14800
H1843       H  0.89271638  0.44347851  0.72050549     0.11300
H1844       H  0.88697347  0.48457644  0.79782648     0.11300
H1845       H  0.88767426  0.44890990  0.82818723     0.11300
H1846       H  0.89279282  0.40749991  0.75093507     0.11300
C1847       C  0.82311841  0.43277638  0.63234098    -0.14800
C1848       C  0.82666837  0.43718594  0.66258216     0.07300
C1849       C  0.82653974  0.41656372  0.68027252    -0.14800
C1850       C  0.82698897  0.39397634  0.66760481    -0.14800
C1851       C  0.82678357  0.39130786  0.63711082     0.07300
C1852       C  0.82269363  0.40970488  0.61971880    -0.14800
H1853       H  0.82329276  0.44845825  0.61827653     0.11300
H1854       H  0.82959585  0.41962650  0.70362351     0.11300
H1855       H  0.83020268  0.38012158  0.68149205     0.11300
H1856       H  0.82270529  0.40827818  0.59615050     0.11300
C1857       C  0.01606529  0.63227468  0.96592295    -0.14800
C1858       C  0.03118406  0.61831487  0.96426343     0.07300
C1859       C  0.01705437  0.58997590  0.95729189    -0.14800
C1860       C  0.98870052  0.57578312  0.95245087    -0.14800
C1861       C  0.97328417  0.58934331  0.95434217     0.07300
C1862       C  0.98724468  0.61785051  0.96102028    -0.14800
H1863       H  0.02640241  0.65411738  0.97133969     0.11300
H1864       H  0.02792591  0.57850962  0.95549876     0.11300
H1865       H  0.97888734  0.55393977  0.94714304     0.11300
H1866       H  0.97592523  0.62886755  0.96265692     0.11300
C1867       C  0.01564090  0.63068336  0.70492638    -0.14800
C1868       C  0.02919101  0.61628082  0.71366467     0.07300
C1869       C  0.01314671  0.58752562  0.71816807    -0.14800
C1870       C  0.98469341  0.57340038  0.71357118    -0.14800
C1871       C  0.97102102  0.58739898  0.70426610     0.07300
C1872       C  0.98672628  0.61632922  0.70027584    -0.14800
H1873       H  0.02737337  0.65284093  0.70132723     0.11300
H1874       H  0.02257493  0.57562749  0.72528145     0.11300
H1875       H  0.97338033  0.55124339  0.71730089     0.11300
H1876       H  0.97678075  0.62771803  0.69311641     0.11300
C1877       C  0.14137612  0.69611422  0.82263338    -0.14800
C1878       C  0.11542867  0.67601817  0.81173257     0.07300
C1879       C  0.09379554  0.66042415  0.83129623    -0.14800
C1880       C  0.09830786  0.66421112  0.86137139    -0.14800
C1881       C  0.12477008  0.68291368  0.87230218     0.07300
C1882       C  0.14616367  0.69917939  0.85273454    -0.14800
H1883       H  0.15845668  0.70802724  0.80789048     0.11300
H1884       H  0.07372950  0.64463034  0.82330561     0.11300
H1885       H  0.08162616  0.65115497  0.87609741     0.11300
H1886       H  0.16677670  0.71355399  0.86073894     0.11300
C1887       C  0.14966227  0.69908442  0.60338557    -0.14800
C1888       C  0.12689164  0.68599702  0.62231248     0.07300
C1889       C  0.09997969  0.67203384  0.61059949    -0.14800
C1890       C  0.09605249  0.66895648  0.58041418    -0.14800
C1891       C  0.11893059  0.68067964  0.56164965     0.07300
C1892       C  0.14565716  0.69676881  0.57321102    -0.14800
H1893       H  0.17059254  0.70993399  0.61193830     0.11300
H1894       H  0.08213194  0.66159041  0.62476925     0.11300
H1895       H  0.07531468  0.65631171  0.57175712     0.11300
H1896       H  0.16355696  0.70567011  0.55897263     0.11300
C1897       C  0.01542971  0.38465806  0.83529295    -0.14800
C1898       C  0.02895739  0.41258912  0.82642363     0.07300
C1899       C  0.01305009  0.42541743  0.82214752    -0.14800
C1900       C  0.98477731  0.41133590  0.82770373    -0.14800
C1901       C  0.97126257  0.38385271  0.83771169     0.07300
C1902       C  0.98673165  0.37035637  0.84086646    -0.14800
H1903       H  0.02708334  0.37414273  0.83860720     0.11300
H1904       H  0.02250709  0.44670271  0.81483256     0.11300
H1905       H  0.97352393  0.42228010  0.82442612     0.11300
H1906       H  0.97684378  0.34910896  0.84836949     0.11300
C1907       C  0.17223961  0.58397923  0.80395143    -0.14800
C1908       C  0.17193733  0.56312737  0.78647287     0.07300
C1909       C  0.17453133  0.56689760  0.75610816    -0.14800
C1910       C  0.17455863  0.58967918  0.74328838    -0.14800
C1911       C  0.17110845  0.60854017  0.76057753     0.07300
C1912       C  0.17139773  0.60630446  0.79109123    -0.14800
H1913       H  0.16980093  0.58136629  0.82739493     0.11300
H1914       H  0.17407765  0.55100160  0.74217473     0.11300
H1915       H  0.17402213  0.59068793  0.71969645     0.11300
H1916       H  0.16858177  0.62045688  0.80488287     0.11300
C1917       C  0.11017783  0.53225062  0.91139843    -0.14800
C1918       C  0.10900928  0.53344598  0.88082683     0.07300
C1919       C  0.10560557  0.55442037  0.86799666    -0.14800
C1920       C  0.10590614  0.57522422  0.88528482    -0.14800
C1921       C  0.10898786  0.57500967  0.91568385     0.07300
C1922       C  0.10989417  0.55271827  0.92869784    -0.14800
H1923       H  0.11272856  0.51626027  0.92186967     0.11300
H1924       H  0.10479428  0.55592900  0.84450279     0.11300
H1925       H  0.10514593  0.59223540  0.87480077     0.11300
H1926       H  0.11253729  0.55223693  0.95206697     0.11300
C1927       C  0.01476296  0.42648712  0.58868344    -0.14800
C1928       C  0.02809839  0.41153488  0.58163215     0.07300
C1929       C  0.01216978  0.38239724  0.58062230    -0.14800
C1930       C  0.98338800  0.36875083  0.58589465    -0.14800
C1931       C  0.97019309  0.38406951  0.59230179     0.07300
C1932       C  0.98644658  0.41306153  0.59386909    -0.14800
H1933       H  0.02621561  0.44888915  0.59010723     0.11300
H1934       H  0.02181282  0.37026604  0.57530251     0.11300
H1935       H  0.97146817  0.34635871  0.58461246     0.11300
H1936       H  0.97729474  0.42568329  0.59903148     0.11300
C1937       C  0.17135098  0.58218300  0.55280499    -0.14800
C1938       C  0.16958880  0.56079503  0.53505316     0.07300
C1939       C  0.17136822  0.56443692  0.50464768    -0.14800
C1940       C  0.17246056  0.58819576  0.99199865    -0.14800
C1941       C  0.17085331  0.60764727  0.50985220     0.07300
C1942       C  0.17156743  0.60520904  0.54031894    -0.14800
H1943       H  0.16954671  0.57973180  0.57629908     0.11300
H1944       H  0.16981300  0.54848572  0.99033979     0.11300
H1945       H  0.17134638  0.58920484  0.96845043     0.11300
H1946       H  0.17008766  0.61997205  0.55444007     0.11300
C1947       C  0.10770972  0.55428402  0.61638804    -0.14800
C1948       C  0.10836318  0.53191648  0.62959785     0.07300
C1949       C  0.10739049  0.52976458  0.66014578    -0.14800
C1950       C  0.10757690  0.55059217  0.67723759    -0.14800
C1951       C  0.10937178  0.57414598  0.66401252     0.07300
C1952       C  0.10854099  0.57540655  0.63346983    -0.14800
H1953       H  0.10866972  0.55651856  0.59288040     0.11300
H1954       H  0.10784667  0.51266208  0.67080627     0.11300
H1955       H  0.10836161  0.54922694  0.70075409     0.11300
H1956       H  0.10982623  0.59334156  0.62280038     0.11300
C1957       C  0.09214848  0.43245426  0.96151877    -0.14800
C1958       C  0.11315609  0.43597132  0.98094027     0.07300
C1959       C  0.13788132  0.43878050  0.96982648    -0.14800
C1960       C  0.14243157  0.44046601  0.93969386    -0.14800
C1961       C  0.12189049  0.43828121  0.92037996     0.07300
C1962       C  0.09632395  0.43314771  0.93143919    -0.14800
H1963       H  0.07299349  0.43041606  0.96964425     0.11300
H1964       H  0.15447048  0.44185240  0.98443249     0.11300
H1965       H  0.16235514  0.44461515  0.93150091     0.11300
H1966       H  0.08036800  0.43178140  0.91686373     0.11300
C1967       C  0.14511975  0.44414107  0.68983560    -0.14800
C1968       C  0.12321927  0.43824311  0.67061249     0.07300
C1969       C  0.09700896  0.43068878  0.68191318    -0.14800
C1970       C  0.09332994  0.43128715  0.71197824    -0.14800
C1971       C  0.11555271  0.43843100  0.73111864     0.07300
C1972       C  0.14116231  0.44374724  0.71996524    -0.14800
H1973       H  0.16554191  0.45022944  0.68149819     0.11300
H1974       H  0.07996521  0.42647173  0.66742188     0.11300
H1975       H  0.07346492  0.42722866  0.72024489     0.11300
H1976       H  0.15861528  0.44956593  0.73443583     0.11300
C1977       C  0.23275310  0.44082405  0.81106115    -0.14800
C1978       C  0.25810289  0.46599572  0.80995259     0.07300
C1979       C  0.25802558  0.49082779  0.81490037    -0.14800
C1980       C  0.23340978  0.49065147  0.82050474    -0.14800
C1981       C  0.20799210  0.46563533  0.82140770     0.07300
C1982       C  0.20792045  0.44064477  0.81674766    -0.14800
H1983       H  0.23207648  0.42132028  0.80736618     0.11300
H1984       H  0.27707629  0.51062803  0.81434295     0.11300
H1985       H  0.23439837  0.51031976  0.82410956     0.11300
H1986       H  0.18870558  0.42099917  0.81735400     0.11300
C1987       C  0.23169773  0.43927504  0.56026667    -0.14800
C1988       C  0.25722907  0.46428809  0.56065328     0.07300
C1989       C  0.25738732  0.48896583  0.56728534    -0.14800
C1990       C  0.23272950  0.48884005  0.57261708    -0.14800
C1991       C  0.20709596  0.46402411  0.57152453     0.07300
C1992       C  0.20686700  0.43914563  0.56565402    -0.14800
H1993       H  0.23085267  0.41987976  0.55534665     0.11300
H1994       H  0.27663279  0.50858518  0.56812010     0.11300
H1995       H  0.23382708  0.50836973  0.57746613     0.11300
H1996       H  0.18750156  0.41964220  0.56485847     0.11300
C1997       C  0.30454607  0.44731192  0.90826358    -0.14800
C1998       C  0.32231608  0.43852070  0.89725308     0.07300
C1999       C  0.33487119  0.42857688  0.91649696    -0.14800
C2000       C  0.33074267  0.42865325  0.94657246    -0.14800
C2001       C  0.31487789  0.43968151  0.95778258     0.07300
C2002       C  0.30118168  0.44829557  0.93836242    -0.14800
H2003       H  0.29493905  0.45535083  0.89369865     0.11300
H2004       H  0.34877284  0.42188415  0.90832210     0.11300
H2005       H  0.34175030  0.42218585  0.96113391     0.11300
H2006       H  0.28894622  0.45698624  0.94651518     0.11300
C2007       C  0.33630291  0.42994074  0.66680329    -0.14800
C2008       C  0.32379985  0.43973021  0.64730558     0.07300
C2009       C  0.30708692  0.44988352  0.65813055    -0.14800
C2010       C  0.30430407  0.45183618  0.68819076    -0.14800
C2011       C  0.31750583  0.44284340  0.70781737     0.07300
C2012       C  0.33274909  0.43100816  0.69687137    -0.14800
H2013       H  0.34952004  0.42234736  0.65878171     0.11300
H2014       H  0.29767378  0.45796630  0.64335791     0.11300
H2015       H  0.29260242  0.46119382  0.69611180     0.11300
H2016       H  0.34342918  0.42428031  0.71158504     0.11300
C2017       C  0.46947498  0.57676146  0.99470599    -0.14800
C2018       C  0.46746516  0.57547041  0.96413038     0.07300
C2019       C  0.44507947  0.55227405  0.95094489    -0.14800
C2020       C  0.42386240  0.53198580  0.96802924    -0.14800
C2021       C  0.42502402  0.53422098  0.99858027     0.07300
C2022       C  0.44728082  0.55647900  0.51179151    -0.14800
H2023       H  0.48529344  0.59477051  0.50573485     0.11300
H2024       H  0.44290885  0.55085256  0.92742523     0.11300
H2025       H  0.40596038  0.51521148  0.95734104     0.11300
H2026       H  0.44846349  0.55866986  0.53530511     0.11300
C2027       C  0.40996599  0.58543948  0.82855233    -0.14800
C2028       C  0.39103697  0.56343642  0.84613506     0.07300
C2029       C  0.39369670  0.56622846  0.87661152    -0.14800
C2030       C  0.41660255  0.58918931  0.88912148    -0.14800
C2031       C  0.43753707  0.60922161  0.87130170     0.07300
C2032       C  0.43331051  0.60796129  0.84101708    -0.14800
H2033       H  0.40858583  0.58369029  0.80498472     0.11300
H2034       H  0.37946888  0.54950671  0.89061908     0.11300
H2035       H  0.41951879  0.58950317  0.91253979     0.11300
H2036       H  0.44921870  0.62307961  0.82685756     0.11300
C2037       C  0.57050444  0.66750422  0.76531241    -0.14800
C2038       C  0.56071454  0.68434188  0.75381550     0.07300
C2039       C  0.55313361  0.69907244  0.77294209    -0.14800
C2040       C  0.55401702  0.69595210  0.80308298    -0.14800
C2041       C  0.56164046  0.67739542  0.81444962     0.07300
C2042       C  0.57047760  0.66365345  0.79546388    -0.14800
H2043       H  0.57611765  0.65568064  0.75094666     0.11300
H2044       H  0.54537227  0.71203478  0.76452340     0.11300
H2045       H  0.54685250  0.70649658  0.81743051     0.11300
H2046       H  0.57630328  0.64915960  0.80391989     0.11300
C2047       C  0.56187156  0.69944147  0.55326602    -0.14800
C2048       C  0.56310924  0.67661978  0.56435281     0.07300
C2049       C  0.56635577  0.65893703  0.54501342    -0.14800
C2050       C  0.56683693  0.66311325  0.51495894    -0.14800
C2051       C  0.56319291  0.68448014  0.50384337     0.07300
C2052       C  0.56137393  0.70304023  0.52312425    -0.14800
H2053       H  0.55912585  0.71319034  0.56781157     0.11300
H2054       H  0.56730279  0.64119336  0.55312631     0.11300
H2055       H  0.56780129  0.64832576  0.50037204     0.11300
H2056       H  0.55825830  0.71946185  0.51485343     0.11300
C2057       C  0.44368277  0.55251386  0.70111989    -0.14800
C2058       C  0.46682157  0.57542530  0.71359798     0.07300
C2059       C  0.46992069  0.57694530  0.74409416    -0.14800
C2060       C  0.44936007  0.55679345  0.76188289    -0.14800
C2061       C  0.42511792  0.53515075  0.74944290     0.07300
C2062       C  0.42286405  0.53269631  0.71890074    -0.14800
H2063       H  0.44066190  0.55101676  0.67769177     0.11300
H2064       H  0.48760211  0.59446252  0.75420594     0.11300
H2065       H  0.45152536  0.55926817  0.78534226     0.11300
H2066       H  0.40438761  0.51615205  0.70877546     0.11300
C2067       C  0.39329909  0.56538230  0.62388407    -0.14800
C2068       C  0.39114140  0.56175499  0.59349302     0.07300
C2069       C  0.41079007  0.58294960  0.57561320    -0.14800
C2070       C  0.43409016  0.60562039  0.58794995    -0.14800
C2071       C  0.43761100  0.60786259  0.61836401     0.07300
C2072       C  0.41616160  0.58851505  0.63622168    -0.14800
H2073       H  0.37855550  0.54921594  0.63809897     0.11300
H2074       H  0.40985078  0.58045412  0.55211270     0.11300
H2075       H  0.45042340  0.62012338  0.57373576     0.11300
H2076       H  0.41854146  0.58952338  0.65973440     0.11300
C2077       C  0.42799627  0.41302600  0.79860572    -0.14800
C2078       C  0.41384501  0.38513465  0.78973453     0.07300
C2079       C  0.38481164  0.37164822  0.78673774    -0.14800
C2080       C  0.37048440  0.38609399  0.79189378    -0.14800
C2081       C  0.38496690  0.41422565  0.80020523     0.07300
C2082       C  0.41386649  0.42726439  0.80373796    -0.14800
H2083       H  0.45027169  0.42411703  0.80152375     0.11300
H2084       H  0.37328438  0.35016924  0.77993061     0.11300
H2085       H  0.34822266  0.37539879  0.78902251     0.11300
H2086       H  0.42585218  0.44876521  0.81039623     0.11300
C2087       C  0.38444770  0.36926941  0.54415409    -0.14800
C2088       C  0.41242916  0.38389390  0.53547655     0.07300
C2089       C  0.42507843  0.41266930  0.53126201    -0.14800
C2090       C  0.41073613  0.42664517  0.53641806    -0.14800
C2091       C  0.38312151  0.41244633  0.54598240     0.07300
C2092       C  0.36987328  0.38346021  0.54934842    -0.14800
H2093       H  0.37406449  0.34707783  0.54748710     0.11300
H2094       H  0.44640700  0.42470317  0.52414491     0.11300
H2095       H  0.42155770  0.44885601  0.53307200     0.11300
H2096       H  0.34856919  0.37191947  0.55661626     0.11300
C2097       C  0.44626118  0.30133884  0.89748897    -0.14800
C2098       C  0.44126652  0.31776315  0.87800968     0.07300
C2099       C  0.43449059  0.33709173  0.88904066    -0.14800
C2100       C  0.43450216  0.34123035  0.91910449    -0.14800
C2101       C  0.44030276  0.32539384  0.93857148     0.07300
C2102       C  0.44527422  0.30478045  0.92760509    -0.14800
H2103       H  0.45183455  0.28653835  0.88938675     0.11300
H2104       H  0.43107300  0.35032250  0.87436858     0.11300
H2105       H  0.43085959  0.35738571  0.92715199     0.11300
H2106       H  0.45020899  0.29264082  0.94227506     0.11300
C2107       C  0.43621669  0.33886535  0.63874411    -0.14800
C2108       C  0.44072893  0.31792743  0.62792204     0.07300
C2109       C  0.44302849  0.29986905  0.64753272    -0.14800
C2110       C  0.44171357  0.30331437  0.67764460    -0.14800
C2111       C  0.43919702  0.32553089  0.68848532     0.07300
C2112       C  0.43592731  0.34293812  0.66878407    -0.14800
H2113       H  0.43484598  0.35328566  0.62395495     0.11300
H2114       H  0.44677983  0.28376256  0.63957230     0.11300
H2115       H  0.44461286  0.28983518  0.69244677     0.11300
H2116       H  0.43413054  0.36028431  0.67664338     0.11300
C2117       C  0.74479324  0.51294346  0.93741971    -0.14800
C2118       C  0.74465538  0.53786233  0.93362617     0.07300
C2119       C  0.76999790  0.56303424  0.93526664    -0.14800
C2120       C  0.79488250  0.56311677  0.94038968    -0.14800
C2121       C  0.79485015  0.53803098  0.94392508     0.07300
C2122       C  0.76944526  0.51302370  0.94244262    -0.14800
H2123       H  0.72575693  0.49314538  0.93640602     0.11300
H2124       H  0.77062280  0.58260650  0.93243983     0.11300
H2125       H  0.81408609  0.58275615  0.94152347     0.11300
H2126       H  0.76847474  0.49327769  0.94522097     0.11300
C2127       C  0.63237879  0.61785055  0.91761209    -0.14800
C2128       C  0.61785175  0.58922335  0.92368088     0.07300
C2129       C  0.58878165  0.57539353  0.92461244    -0.14800
C2130       C  0.57452003  0.58937693  0.91935759    -0.14800
C2131       C  0.58867948  0.61781319  0.91293109     0.07300
C2132       C  0.61786701  0.63207872  0.91230205    -0.14800
H2133       H  0.65478990  0.62911739  0.91676626     0.11300
H2134       H  0.57672680  0.55346258  0.92940898     0.11300
H2135       H  0.55210836  0.57762407  0.92039166     0.11300
H2136       H  0.62938538  0.65402515  0.90744579     0.11300
C2137       C  0.60838625  0.43562262  0.99826555    -0.14800
C2138       C  0.60993909  0.43974956  0.96793352     0.07300
C2139       C  0.58950302  0.41910435  0.95009115    -0.14800
C2140       C  0.56626510  0.39648238  0.96249874    -0.14800
C2141       C  0.56344346  0.39366754  0.99296411     0.07300
C2142       C  0.58532086  0.41344394  0.51144568    -0.14800
H2143       H  0.62282690  0.45289399  0.51324311     0.11300
H2144       H  0.58991079  0.42199354  0.92667988     0.11300
H2145       H  0.54946838  0.38244293  0.94836354     0.11300
H2146       H  0.58307532  0.41246745  0.53497218     0.11300
C2147       C  0.57840715  0.46922031  0.84274700    -0.14800
C2148       C  0.57764560  0.46667906  0.87326222     0.07300
C2149       C  0.55511207  0.44366026  0.88633127    -0.14800
C2150       C  0.53466072  0.42265124  0.86910544    -0.14800
C2151       C  0.53603752  0.42461152  0.83852483     0.07300
C2152       C  0.55760089  0.44851684  0.82553514    -0.14800
H2153       H  0.59563980  0.48673342  0.83217091     0.11300
H2154       H  0.55422824  0.44103674  0.90978853     0.11300
H2155       H  0.51830019  0.40440164  0.87966898     0.11300
H2156       H  0.55934193  0.45041726  0.80201730     0.11300
C2157       C  0.74241075  0.51103636  0.68926523    -0.14800
C2158       C  0.74270480  0.53592256  0.68350567     0.07300
C2159       C  0.76829833  0.56087455  0.68374740    -0.14800
C2160       C  0.79300229  0.56081962  0.68948143    -0.14800
C2161       C  0.79258338  0.53581618  0.69512562     0.07300
C2162       C  0.76693314  0.51098109  0.69497830    -0.14800
H2163       H  0.72313760  0.49142069  0.68938888     0.11300
H2164       H  0.76926730  0.58040967  0.67932774     0.11300
H2165       H  0.81239134  0.58031097  0.68941813     0.11300
H2166       H  0.76569307  0.49131181  0.69933280     0.11300
C2167       C  0.63068963  0.61778695  0.67586944    -0.14800
C2168       C  0.61838264  0.58930955  0.66967618     0.07300
C2169       C  0.59198273  0.57561067  0.65678185    -0.14800
C2170       C  0.57753266  0.58947427  0.65161403    -0.14800
C2171       C  0.58897590  0.61752114  0.65917826     0.07300
C2172       C  0.61603996  0.63183019  0.67066412    -0.14800
H2173       H  0.65110238  0.62888061  0.68566321     0.11300
H2174       H  0.58215504  0.55385008  0.65109997     0.11300
H2175       H  0.55701875  0.57793328  0.64208708     0.11300
H2176       H  0.62545203  0.65351336  0.67649465     0.11300
C2177       C  0.58923900  0.41837917  0.70010753    -0.14800
C2178       C  0.60868579  0.43961091  0.71823132     0.07300
C2179       C  0.60652277  0.43575551  0.74857511    -0.14800
C2180       C  0.58392738  0.41225348  0.76063180    -0.14800
C2181       C  0.56268303  0.39277267  0.74255136     0.07300
C2182       C  0.56616461  0.39535620  0.71217183    -0.14800
H2183       H  0.59017384  0.42102178  0.67664540     0.11300
H2184       H  0.62109132  0.45192784  0.76298730     0.11300
H2185       H  0.58153625  0.41100406  0.78412642     0.11300
H2186       H  0.54995026  0.38078703  0.69778982     0.11300
C2187       C  0.66020477  0.56801930  0.79192308    -0.14800
C2188       C  0.67714272  0.56391456  0.77234926     0.07300
C2189       C  0.69898995  0.56084382  0.78327836    -0.14800
C2190       C  0.70244781  0.55969993  0.81339172    -0.14800
C2191       C  0.68477742  0.56269760  0.83290443     0.07300
C2192       C  0.66430819  0.56788943  0.82198192    -0.14800
H2193       H  0.64315418  0.57028362  0.78396356     0.11300
H2194       H  0.71209770  0.55732431  0.76856463     0.11300
H2195       H  0.71819958  0.55545113  0.82144288     0.11300
H2196       H  0.65020407  0.56983834  0.83670482     0.11300
C2197       C  0.65983925  0.56827983  0.54150739    -0.14800
C2198       C  0.67677493  0.56402607  0.52207529     0.07300
C2199       C  0.69832944  0.56056961  0.53319040    -0.14800
C2200       C  0.70148585  0.55918731  0.56331932    -0.14800
C2201       C  0.68382417  0.56234248  0.58269573     0.07300
C2202       C  0.66366836  0.56792992  0.57161509    -0.14800
H2203       H  0.64301782  0.57083891  0.53339553     0.11300
H2204       H  0.71142864  0.55692702  0.51858147     0.11300
H2205       H  0.71698140  0.55461659  0.57148377     0.11300
H2206       H  0.64956518  0.57000167  0.58623913     0.11300
C2207       C  0.55350986  0.44334014  0.63737652    -0.14800
C2208       C  0.57532582  0.46697309  0.62432664     0.07300
C2209       C  0.57514170  0.47042916  0.59403124    -0.14800
C2210       C  0.55431393  0.44979263  0.57682528    -0.14800
C2211       C  0.53378043  0.42508541  0.58961029     0.07300
C2212       C  0.53305112  0.42242014  0.62012852    -0.14800
H2213       H  0.55335974  0.44013015  0.66069207     0.11300
H2214       H  0.59177992  0.48853976  0.58355545     0.11300
H2215       H  0.55545429  0.45233200  0.55336142     0.11300
H2216       H  0.51741363  0.40360377  0.63055060     0.11300
C2217       C  0.55927146  0.79107651  0.89062828    -0.14800
C2218       C  0.53496123  0.79250420  0.89396611     0.07300
C2219       C  0.51068971  0.76874455  0.90330546    -0.14800
C2220       C  0.51060602  0.74411915  0.90892965    -0.14800
C2221       C  0.53479037  0.74252526  0.90537373     0.07300
C2222       C  0.55918457  0.76632451  0.89625987    -0.14800
H2223       H  0.57827155  0.80897765  0.88331359     0.11300
H2224       H  0.49164343  0.76913627  0.90630073     0.11300
H2225       H  0.49148873  0.72628578  0.91614272     0.11300
H2226       H  0.57813424  0.76576090  0.89322838     0.11300
C2227       C  0.50992284  0.76762225  0.64830230    -0.14800
C2228       C  0.53498328  0.79242924  0.64360158     0.07300
C2229       C  0.55992238  0.79190615  0.64490722    -0.14800
C2230       C  0.55968986  0.76703190  0.65033344    -0.14800
C2231       C  0.53450738  0.74217184  0.65454648     0.07300
C2232       C  0.50968928  0.74289071  0.65366841    -0.14800
H2233       H  0.49031382  0.76719701  0.64766062     0.11300
H2234       H  0.57960652  0.81065240  0.64146649     0.11300
H2235       H  0.57918817  0.76724396  0.65101087     0.11300
H2236       H  0.48990248  0.72424697  0.65705399     0.11300
C2237       C  0.56949082  0.90698406  0.75129313    -0.14800
C2238       C  0.56382234  0.88529344  0.73189428     0.07300
C2239       C  0.55900081  0.85978371  0.74296969    -0.14800
C2240       C  0.55753258  0.85531842  0.77311473    -0.14800
C2241       C  0.56192680  0.87665084  0.79247852     0.07300
C2242       C  0.56904013  0.90283631  0.78138110    -0.14800
H2243       H  0.57310480  0.92676006  0.74316299     0.11300
H2244       H  0.55427403  0.84270119  0.72835101     0.11300
H2245       H  0.55186276  0.83493326  0.78129813     0.11300
H2246       H  0.57215295  0.91945195  0.79596504     0.11300
C2247       C  0.56939862  0.90793457  0.00104412    -0.14800
C2248       C  0.56227552  0.88592232  0.98159464     0.07300
C2249       C  0.55614540  0.85996341  0.99255349    -0.14800
C2250       C  0.55399928  0.85502289  0.52248502    -0.14800
C2251       C  0.56120876  0.87702890  0.54199317     0.07300
C2252       C  0.57003150  0.90365443  0.53091405    -0.14800
H2253       H  0.57405683  0.92806948  0.99298680     0.11300
H2254       H  0.55028101  0.84263657  0.97789727     0.11300
H2255       H  0.54685153  0.83427300  0.53056373     0.11300
H2256       H  0.57522117  0.92082115  0.54557985     0.11300
C2257       C  0.76709449  0.25736505  0.84965338    -0.14800
C2258       C  0.79283851  0.25855094  0.85105369     0.07300
C2259       C  0.79332205  0.23412602  0.85747958    -0.14800
C2260       C  0.76859836  0.20922574  0.86283802    -0.14800
C2261       C  0.74291257  0.20826851  0.86184345     0.07300
C2262       C  0.74253337  0.23262545  0.85493485    -0.14800
H2263       H  0.76583352  0.27563922  0.84445003     0.11300
H2264       H  0.81280040  0.23430583  0.85864638     0.11300
H2265       H  0.76963031  0.19084668  0.86809715     0.11300
H2266       H  0.72317820  0.23268173  0.85372017     0.11300
C2267       C  0.58999987  0.01247500  0.86333053    -0.14800
C2268       C  0.61820004  0.02884593  0.87044415     0.07300
C2269       C  0.63236650  0.01569300  0.88115871    -0.14800
C2270       C  0.61809747  0.98682770  0.88580895    -0.14800
C2271       C  0.58953814  0.97086642  0.87979383     0.07300
C2272       C  0.57595611  0.98404769  0.86789410    -0.14800
H2273       H  0.57847429  0.02167548  0.85443676     0.11300
H2274       H  0.65415751  0.02774603  0.88663996     0.11300
H2275       H  0.62912170  0.97718716  0.89490457     0.11300
H2276       H  0.55412712  0.97239191  0.86242529     0.11300
C2277       C  0.74072805  0.23247844  0.60665560    -0.14800
C2278       C  0.74163282  0.20839522  0.61364315     0.07300
C2279       C  0.76749144  0.20974030  0.61401465    -0.14800
C2280       C  0.79186572  0.23467331  0.60783912    -0.14800
C2281       C  0.79091666  0.25880009  0.60109048     0.07300
C2282       C  0.76499419  0.25729662  0.60046755    -0.14800
H2283       H  0.72119121  0.23220554  0.60592341     0.11300
H2284       H  0.76893645  0.19159147  0.61931360     0.11300
H2285       H  0.81146318  0.23507387  0.60851277     0.11300
H2286       H  0.76337961  0.27535555  0.59518106     0.11300
C2287       C  0.57899756  0.98803850  0.64268368    -0.14800
C2288       C  0.59117883  0.97187704  0.63644156     0.07300
C2289       C  0.61861710  0.98515269  0.62603378    -0.14800
C2290       C  0.63293325  0.01391850  0.62071303    -0.14800
C2291       C  0.61988152  0.02958119  0.62569135     0.07300
C2292       C  0.59305367  0.01630772  0.63738499    -0.14800
H2293       H  0.55817454  0.97877090  0.65133316     0.11300
H2294       H  0.62862344  0.97325869  0.62123582     0.11300
H2295       H  0.65371351  0.02368276  0.61189335     0.11300
H2296       H  0.58256868  0.02776167  0.64215652     0.11300
C2297       C  0.66490652  0.09390834  0.50506685    -0.14800
C2298       C  0.67843989  0.11619546  0.52453074     0.07300
C2299       C  0.69673269  0.14273566  0.51362763    -0.14800
C2300       C  0.69965371  0.14831258  0.98327149    -0.14800
C2301       C  0.68630823  0.12581332  0.96394401     0.07300
C2302       C  0.67113243  0.09883565  0.97523118    -0.14800
H2303       H  0.65058336  0.07332901  0.51310429     0.11300
H2304       H  0.70708782  0.16025459  0.52832542     0.11300
H2305       H  0.71137513  0.16929787  0.97504759     0.11300
H2306       H  0.66042010  0.08120724  0.96074389     0.11300
C2307       C  0.66534731  0.09583211  0.72512407    -0.14800
C2308       C  0.68457984  0.12195069  0.71398380     0.07300
C2309       C  0.70169714  0.14330966  0.73326415    -0.14800
C2310       C  0.69865548  0.13901430  0.76338451    -0.14800
C2311       C  0.67774562  0.11365507  0.77451772     0.07300
C2312       C  0.66160388  0.09184616  0.75523101    -0.14800
H2313       H  0.65169318  0.07921734  0.71055318     0.11300
H2314       H  0.71648894  0.16364863  0.72501692     0.11300
H2315       H  0.71110576  0.15617653  0.77792214     0.11300
H2316       H  0.64529059  0.07218081  0.76343630     0.11300
C2317       C  0.44043194  0.20821356  0.76921596    -0.14800
C2318       C  0.46551191  0.20788188  0.76907767     0.07300
C2319       C  0.49038695  0.23291673  0.77354378    -0.14800
C2320       C  0.49033979  0.25761704  0.77783464    -0.14800
C2321       C  0.46540385  0.25814350  0.77791784     0.07300
C2322       C  0.44037569  0.23311883  0.77361926    -0.14800
H2323       H  0.42089489  0.18929903  0.76571559     0.11300
H2324       H  0.51010938  0.23354818  0.77362408     0.11300
H2325       H  0.51003398  0.27637298  0.78123318     0.11300
H2326       H  0.42080562  0.23278786  0.77359830     0.11300
C2327       C  0.55156045  0.10241033  0.71776530    -0.14800
C2328       C  0.53297652  0.10963269  0.70535216     0.07300
C2329       C  0.53396931  0.11416530  0.67506920    -0.14800
C2330       C  0.55414951  0.11312926  0.65792551    -0.14800
C2331       C  0.57406221  0.10811908  0.67081817     0.07300
C2332       C  0.57216480  0.10204437  0.70071366    -0.14800
H2333       H  0.55139681  0.09888054  0.74100429     0.11300
H2334       H  0.51992736  0.11972374  0.66481974     0.11300
H2335       H  0.55539134  0.11818648  0.63495717     0.11300
H2336       H  0.58735266  0.09817294  0.71109542     0.11300
C2337       C  0.58452442  0.17193377  0.78375200    -0.14800
C2338       C  0.56374672  0.17125480  0.80160140     0.07300
C2339       C  0.56781527  0.17371969  0.83193165    -0.14800
C2340       C  0.59087348  0.17398536  0.84434159    -0.14800
C2341       C  0.60966521  0.17082790  0.82665817     0.07300
C2342       C  0.60711336  0.17128068  0.79619657    -0.14800
H2343       H  0.58167239  0.16963488  0.76030594     0.11300
H2344       H  0.55198222  0.17300186  0.84611891     0.11300
H2345       H  0.59215884  0.17336445  0.86790486     0.11300
H2346       H  0.62122756  0.16872354  0.78211279     0.11300
C2347       C  0.49176688  0.23443607  0.51642439    -0.14800
C2348       C  0.46703053  0.20872522  0.51746694     0.07300
C2349       C  0.44176015  0.20852079  0.02219544    -0.14800
C2350       C  0.44203764  0.23327115  0.52794551    -0.14800
C2351       C  0.46690955  0.25892621  0.52718101     0.07300
C2352       C  0.49170305  0.25911643  0.52117611    -0.14800
H2353       H  0.51135729  0.23558892  0.51187927     0.11300
H2354       H  0.42220251  0.18921850  0.02164310     0.11300
H2355       H  0.42207058  0.23259530  0.03004058     0.11300
H2356       H  0.51125213  0.27842453  0.52024204     0.11300
C2357       C  0.55481278  0.10505571  0.96977152    -0.14800
C2358       C  0.53481286  0.11031093  0.95744414     0.07300
C2359       C  0.53451138  0.11341824  0.92701073    -0.14800
C2360       C  0.55475953  0.11298684  0.90950758    -0.14800
C2361       C  0.57599206  0.10993982  0.92213992     0.07300
C2362       C  0.57546557  0.10524055  0.95229067    -0.14800
H2363       H  0.55566368  0.10272456  0.99313772     0.11300
H2364       H  0.51935350  0.11747153  0.91684544     0.11300
H2365       H  0.55492392  0.11697427  0.88636568     0.11300
H2366       H  0.59169714  0.10287913  0.96246660     0.11300
C2367       C  0.58444031  0.17110068  0.53482615    -0.14800
C2368       C  0.56411826  0.17116741  0.55282358     0.07300
C2369       C  0.56839587  0.17378556  0.58310257    -0.14800
C2370       C  0.59125575  0.17357905  0.59534167    -0.14800
C2371       C  0.60956056  0.16975975  0.57752986     0.07300
C2372       C  0.60679736  0.16997327  0.54710035    -0.14800
H2373       H  0.58136181  0.16861157  0.51140886     0.11300
H2374       H  0.55287131  0.17359102  0.59738012     0.11300
H2375       H  0.59273266  0.17316418  0.61890555     0.11300
H2376       H  0.62052771  0.16689400  0.53293978     0.11300
C2377       C  0.43242702  0.09302700  0.87725957    -0.14800
C2378       C  0.44042103  0.11524243  0.85790690     0.07300
C2379       C  0.44755934  0.14145735  0.86894043    -0.14800
C2380       C  0.44853544  0.14586784  0.89902203    -0.14800
C2381       C  0.44148638  0.12390849  0.91848858     0.07300
C2382       C  0.43245389  0.09722736  0.90737221    -0.14800
H2383       H  0.42704548  0.07269698  0.86911025     0.11300
H2384       H  0.45414613  0.15892120  0.85434335     0.11300
H2385       H  0.45579112  0.16664541  0.90712713     0.11300
H2386       H  0.42733557  0.08007927  0.92200590     0.11300
C2387       C  0.44460406  0.14130661  0.61891458    -0.14800
C2388       C  0.43979664  0.11575000  0.60795013     0.07300
C2389       C  0.43341133  0.09392328  0.62735957    -0.14800
C2390       C  0.43288697  0.09789818  0.65740016    -0.14800
C2391       C  0.43977087  0.12404811  0.66847956     0.07300
C2392       C  0.44509721  0.14559129  0.64903003    -0.14800
H2393       H  0.44988541  0.15850327  0.60428981     0.11300
H2394       H  0.42978978  0.07411107  0.61931152     0.11300
H2395       H  0.42917374  0.08114744  0.67205318     0.11300
H2396       H  0.45072559  0.16598941  0.65717343     0.11300
C2397       C  0.25969663  0.76821018  0.98069522    -0.14800
C2398       C  0.25927924  0.79281311  0.98615926     0.07300
C2399       C  0.23371110  0.79206853  0.98529688    -0.14800
C2400       C  0.20918081  0.76725447  0.97902870    -0.14800
C2401       C  0.20974725  0.74270870  0.97349751     0.07300
C2402       C  0.23532560  0.74355743  0.97447484    -0.14800
H2403       H  0.27895844  0.76792767  0.98112940     0.11300
H2404       H  0.23384461  0.81107727  0.48806318     0.11300
H2405       H  0.18979617  0.76728912  0.97858572     0.11300
H2406       H  0.23661888  0.72512450  0.97031609     0.11300
C2407       C  0.41348463  0.98559502  0.00536685    -0.14800
C2408       C  0.38548488  0.97213750  0.49549406     0.07300
C2409       C  0.37078216  0.98574394  0.50280333    -0.14800
C2410       C  0.38504863  0.01445294  0.50861755    -0.14800
C2411       C  0.41419434  0.02987312  0.50729338     0.07300
C2412       C  0.42770183  0.01386633  0.01114417    -0.14800
H2413       H  0.42495569  0.97468674  0.00649362     0.11300
H2414       H  0.34840379  0.97418932  0.50441981     0.11300
H2415       H  0.37339179  0.02443375  0.51458985     0.11300
H2416       H  0.44953920  0.02353726  0.01639174     0.11300
C2417       C  0.42575942  0.89301860  0.57774524    -0.14800
C2418       C  0.42711445  0.89222975  0.54717206     0.07300
C2419       C  0.45057395  0.89358047  0.53423167    -0.14800
C2420       C  0.47115148  0.89338924  0.55156058    -0.14800
C2421       C  0.46893935  0.89249057  0.58212771     0.07300
C2422       C  0.44664185  0.89346913  0.59506258    -0.14800
H2423       H  0.40791237  0.89201190  0.58827949     0.11300
H2424       H  0.45205608  0.89276848  0.51073569     0.11300
H2425       H  0.48814258  0.89264249  0.54105200     0.11300
H2426       H  0.44427997  0.89252658  0.61855139     0.11300
C2427       C  0.39456913  0.82776096  0.92260846    -0.14800
C2428       C  0.39289838  0.83010399  0.95294178     0.07300
C2429       C  0.41308074  0.82959012  0.97087522    -0.14800
C2430       C  0.43633102  0.83027907  0.95856019    -0.14800
C2431       C  0.43930115  0.83060249  0.92812083     0.07300
C2432       C  0.41740517  0.82755048  0.91031600    -0.14800
H2433       H  0.37942945  0.82841356  0.90835366     0.11300
H2434       H  0.41253458  0.83187311  0.99432469     0.11300
H2435       H  0.45300935  0.83287810  0.97272458     0.11300
H2436       H  0.41936141  0.82819766  0.88675629     0.11300
C2437       C  0.23390002  0.74178312  0.72853580    -0.14800
C2438       C  0.20899400  0.74171511  0.72351439     0.07300
C2439       C  0.20936770  0.76712678  0.72434029    -0.14800
C2440       C  0.23405118  0.79194231  0.73022375    -0.14800
C2441       C  0.25889260  0.79187873  0.73540450     0.07300
C2442       C  0.25844428  0.76645629  0.73437554    -0.14800
H2443       H  0.23449812  0.72267819  0.72805787     0.11300
H2444       H  0.19060175  0.76786126  0.72041557     0.11300
H2445       H  0.23366026  0.81114717  0.73074534     0.11300
H2446       H  0.27710410  0.76551276  0.73824707     0.11300
C2447       C  0.37013960  0.98688935  0.74401358    -0.14800
C2448       C  0.38254730  0.97083722  0.75020919     0.07300
C2449       C  0.40911199  0.98386436  0.76272754    -0.14800
C2450       C  0.42344995  0.01222413  0.76790743    -0.14800
C2451       C  0.41177398  0.02866999  0.76078233     0.07300
C2452       C  0.38469472  0.01568102  0.74926431    -0.14800
H2453       H  0.34966995  0.97738202  0.73435337     0.11300
H2454       H  0.41913419  0.97211770  0.76827786     0.11300
H2455       H  0.44401469  0.02133119  0.77730130     0.11300
H2456       H  0.37513440  0.02782521  0.74361527     0.11300
C2457       C  0.42511269  0.89337655  0.82696547    -0.14800
C2458       C  0.42577267  0.89120014  0.79648497     0.07300
C2459       C  0.44831478  0.89071818  0.78352809    -0.14800
C2460       C  0.46869474  0.89021248  0.80087142    -0.14800
C2461       C  0.46721871  0.89081549  0.83145066     0.07300
C2462       C  0.44584775  0.89352726  0.84429362    -0.14800
H2463       H  0.40791516  0.89376121  0.83744625     0.11300
H2464       H  0.44915758  0.88875048  0.76009170     0.11300
H2465       H  0.48496277  0.88814637  0.79041073     0.11300
H2466       H  0.44408450  0.89382345  0.86779272     0.11300
C2467       C  0.30038086  0.85537232  0.85673560    -0.14800
C2468       C  0.31700045  0.87666103  0.83722482     0.07300
C2469       C  0.33630538  0.90289896  0.84817690    -0.14800
C2470       C  0.34046805  0.90718996  0.87823224    -0.14800
C2471       C  0.32466607  0.88558646  0.89774600     0.07300
C2472       C  0.30382593  0.85998284  0.88684451    -0.14800
H2473       H  0.28554251  0.83493992  0.84867639     0.11300
H2474       H  0.34960408  0.91946942  0.83346031     0.11300
H2475       H  0.35671976  0.92703430  0.88622912     0.11300
H2476       H  0.29161561  0.84295603  0.90156349     0.11300
C2477       C  0.34033434  0.90844616  0.62869239    -0.14800
C2478       C  0.32445062  0.88659848  0.64793310     0.07300
C2479       C  0.30394213  0.86099988  0.63670350    -0.14800
C2480       C  0.30097333  0.85662593  0.60656682    -0.14800
C2481       C  0.31776093  0.87811196  0.58733477     0.07300
C2482       C  0.33665477  0.90436193  0.59857173    -0.14800
H2483       H  0.35632945  0.92829498  0.63695523     0.11300
H2484       H  0.29168832  0.84380041  0.65119543     0.11300
H2485       H  0.28642453  0.83617817  0.59827606     0.11300
H2486       H  0.35006187  0.92109307  0.58406849     0.11300
C2487       C  0.41155259  0.82812440  0.71844699    -0.14800
C2488       C  0.39284410  0.83128967  0.70054909     0.07300
C2489       C  0.39577492  0.83127782  0.67012668    -0.14800
C2490       C  0.41847739  0.83075553  0.65796038    -0.14800
C2491       C  0.43900532  0.83109958  0.67605079     0.07300
C2492       C  0.43473054  0.82850609  0.70631944    -0.14800
H2493       H  0.41002430  0.82851714  0.74199539     0.11300
H2494       H  0.38179699  0.83395645  0.65589357     0.11300
H2495       H  0.42152077  0.83322098  0.63455888     0.11300
H2496       H  0.45039587  0.82901374  0.72068851     0.11300
loop_ 
_geom_bond_atom_site_label_1 
_geom_bond_atom_site_label_2 
_geom_bond_distance 
_geom_bond_site_symmetry_2 
_ccdc_geom_bond_type 
Fe1          O17   2.062       .  S
Fe1           O7   2.111       .  S
Fe1          O14   2.109       .  S
Fe1           O6   2.061       .  S
Fe1          O12   1.942       .  S
Fe2           O5   2.051       .  S
Fe2           O9   2.077       .  S
Fe2          O13   2.040       .  S
Fe2          O18   2.101       .  S
Fe2          O12   1.932       .  S
Fe3          O21   2.100       .  S
Fe3           O8   2.051       .  S
Fe3          O15   2.049       .  S
Fe3           O4   2.084       .  S
Fe3          O12   1.944       .  S
O4           C11   1.270       .  A
O5           C19   1.264       .  A
O6           C11   1.267       .  A
O7           C10   1.281       .  A
O8           C20   1.270       .  A
O9           C22   1.273       .  A
C10          O15   1.272       .  A
C10        C1193   1.489       .  S
C11        C1220   1.471       .  S
O13          C16   1.268       .  A
O14          C16   1.277       .  A
C16        C1200   1.486       .  S
O17          C22   1.270       .  A
O18          C20   1.278       .  A
C19          O21   1.273       .  A
C19        C1240   1.478       .  S
C20        C1210   1.476       .  S
C22        C1230   1.470       .  S
Fe23         O39   2.062       .  S
Fe23         O29   2.110       .  S
Fe23         O36   2.109       .  S
Fe23       O1276   2.059       .  S
Fe23         O34   1.943       .  S
Fe24         O27   2.051       .  S
Fe24         O31   2.082       .  S
Fe24         O35   2.037       .  S
Fe24       O1288   2.105       .  S
Fe24         O34   1.931       .  S
Fe25         O30   2.050       .  S
Fe25         O37   2.042   1_554  S
Fe25         O26   2.083       .  S
Fe25       O1291   2.097   1_554  S
Fe25       O1282   1.940   1_554  S
O26          C33   1.270       .  A
O27          C41   1.264       .  A
O28       Fe1271   2.057   1_554  S
O28          C33   1.266       .  A
O29          C32   1.281       .  A
O30          C42   1.270       .  A
O31          C44   1.273       .  A
C32        O1285   1.271       .  A
C32        C1150   1.485       .  S
C33        C1233   1.467       .  S
O34       Fe1273   1.942       .  S
O35        C1286   1.268       .  A
O36        C1286   1.277       .  A
O37        C1280   1.271       .  A
C38        O1283   1.268       .  A
C38        O1284   1.278       .  A
C38        C1160   1.489       .  S
O39          C44   1.269       .  A
O40       Fe1272   2.104   1_554  S
O40          C42   1.278       .  A
C41          O43   1.272       .  A
C41        C1180   1.475       .  S
C42        C1170   1.478       .  S
O43       Fe1273   2.094       .  S
C44        C1223   1.473       .  S
Fe45         O61   2.062       .  S
Fe45         O51   2.116       .  S
Fe45         O58   2.110       .  S
Fe45       O1298   2.064   1_554  S
Fe45         O56   1.942       .  S
Fe46         O49   2.052       .  S
Fe46         O53   2.085       .  S
Fe46         O57   2.039       .  S
Fe46       O1310   2.108       .  S
Fe46         O56   1.931       .  S
Fe47         O52   2.046       .  S
Fe47         O48   2.079       .  S
Fe47       O1313   2.092       .  S
Fe47       O1307   2.045       .  S
Fe47       O1304   1.940       .  S
O48          C55   1.269       .  A
O49          C63   1.264       .  A
O50       Fe1293   2.065       .  S
O50          C55   1.267       .  A
O51          C54   1.282       .  A
O52          C64   1.270       .  A
O53          C66   1.274       .  A
C54          O59   1.272       .  A
C54        C1100   1.489       .  S
C55        C1133   1.473       .  S
O56       Fe1295   1.941   1_554  S
O57          C60   1.268       .  A
O58          C60   1.277       .  A
O59       Fe1295   2.044   1_554  S
C60        C1163   1.490       .  S
O61          C66   1.270       .  A
O62       Fe1294   2.105       .  S
O62          C64   1.279       .  A
C63          O65   1.271       .  A
C63        C1120   1.474       .  S
C64        C1110   1.479       .  S
O65       Fe1295   2.092   1_554  S
C66        C1140   1.472       .  S
Fe67         O83   2.059       .  S
Fe67         O73   2.106       .  S
Fe67         O80   2.106       .  S
Fe67         O72   2.059       .  S
Fe67         O78   1.944       .  S
Fe68         O71   2.054       .  S
Fe68         O75   2.092       .  S
Fe68         O79   2.043       .  S
Fe68         O84   2.099       .  S
Fe68         O78   1.931       .  S
Fe69         O87   2.095       .  S
Fe69         O74   2.052       .  S
Fe69         O81   2.048       .  S
Fe69         O70   2.084       .  S
Fe69         O78   1.941       .  S
O70          C77   1.271       .  A
O71          C85   1.266       .  A
O72          C77   1.268       .  A
O73          C76   1.278       .  A
O74          C86   1.270       .  A
O75          C88   1.275       .  A
C76          O81   1.271       .  A
C76        C1070   1.486       .  S
C77        C1143   1.470       .  S
O79          C82   1.267       .  A
O80          C82   1.275       .  A
C82        C1203   1.485       .  S
O83          C88   1.271       .  A
O84          C86   1.278       .  A
C85          O87   1.272       .  A
C85        C1090   1.476       .  S
C86        C1080   1.482       .  S
C88        C1130   1.473       .  S
Fe89        O105   2.058       .  S
Fe89         O95   2.107       .  S
Fe89        O102   2.107       .  S
Fe89         O94   2.058       .  S
Fe89        O100   1.943       .  S
Fe90         O93   2.051       .  S
Fe90         O97   2.081       .  S
Fe90        O101   2.035       .  S
Fe90        O106   2.101       .  S
Fe90        O100   1.931       .  S
Fe91        O109   2.094       .  S
Fe91         O96   2.055       .  S
Fe91        O103   2.047       .  S
Fe91         O92   2.082       .  S
Fe91        O100   1.938       .  S
O92          C99   1.270       .  A
O93         C107   1.266       .  A
O94          C99   1.266       .  A
O95          C98   1.280       .  A
O96         C108   1.270       .  A
O97         C110   1.272       .  A
C98         O103   1.271       .  A
C98        C1030   1.486       .  S
C99        C1060   1.468       .  S
O101        C104   1.268       .  A
O102        C104   1.277       .  A
C104       C1043   1.486       .  S
O105        C110   1.268       .  A
O106        C108   1.277       .  A
C107        O109   1.272       .  A
C107       C1123   1.476       .  S
C108       C1083   1.474       .  S
C110       C1050   1.467       .  S
Fe111       O127   2.061       .  S
Fe111       O117   2.111       .  S
Fe111       O124   2.107       .  S
Fe111       O116   2.062       .  S
Fe111       O122   1.944       .  S
Fe112       O115   2.054       .  S
Fe112       O119   2.077       .  S
Fe112       O123   2.038       .  S
Fe112       O128   2.098       .  S
Fe112       O122   1.932       .  S
Fe113       O131   2.094       .  S
Fe113       O118   2.054       .  S
Fe113       O125   2.048       .  S
Fe113       O114   2.081       .  S
Fe113       O122   1.943       .  S
O114        C121   1.269       .  A
O115        C129   1.265       .  A
O116        C121   1.267       .  A
O117        C120   1.281       .  A
O118        C130   1.271       .  A
O119        C132   1.272       .  A
C120        O125   1.272       .  A
C120       C1013   1.487       .  S
C121       C1053   1.474       .  S
O123        C126   1.268       .  A
O124        C126   1.277       .  A
C126       C1020   1.487       .  S
O127        C132   1.270       .  A
O128        C130   1.278       .  A
C129        O131   1.271       .  A
C129       C1093   1.477       .  S
C130       C1113   1.474       .  S
C132       C1063   1.469       .  S
Fe133       O149   2.060       .  S
Fe133       O139   2.112       .  S
Fe133       O146   2.108       .  S
Fe133       O138   2.062       .  S
Fe133       O144   1.943       .  S
Fe134       O137   2.050       .  S
Fe134       O141   2.082       .  S
Fe134       O145   2.032       .  S
Fe134       O150   2.103       .  S
Fe134       O144   1.929       .  S
Fe135       O153   2.100       .  S
Fe135       O140   2.051       .  S
Fe135       O147   2.046       .  S
Fe135       O136   2.083       .  S
Fe135       O144   1.939       .  S
O136        C143   1.270       .  A
O137        C151   1.264       .  A
O138        C143   1.267       .  A
O139        C142   1.281       .  A
O140        C152   1.270       .  A
O141        C154   1.273       .  A
C142        O147   1.272       .  A
C142        C980   1.488       .  S
C143       C1003   1.472       .  S
O145        C148   1.267       .  A
O146        C148   1.277       .  A
C148       C1040   1.487       .  S
O149        C154   1.270       .  A
O150        C152   1.278       .  A
C151        O153   1.273       .  A
C151       C1243   1.478       .  S
C152       C1173   1.478       .  S
C154        C990   1.470       .  S
Fe155       O171   2.060       .  S
Fe155       O161   2.108       .  S
Fe155       O168   2.111       .  S
Fe155       O160   2.057       .  S
Fe155       O166   1.941       .  S
Fe156       O159   2.049       .  S
Fe156       O163   2.086       .  S
Fe156       O167   2.035       .  S
Fe156       O172   2.099       .  S
Fe156       O166   1.930       .  S
Fe157       O175   2.097       .  S
Fe157       O162   2.052       .  S
Fe157       O169   2.048       .  S
Fe157       O158   2.085       .  S
Fe157       O166   1.939       .  S
O158        C165   1.271       .  A
O159        C173   1.265       .  A
O160        C165   1.267       .  A
O161        C164   1.280       .  A
O162        C174   1.270       .  A
O163        C176   1.273       .  A
C164        O169   1.271       .  A
C164        C970   1.486       .  S
C165        C993   1.470       .  S
O167        C170   1.267       .  A
O168        C170   1.277       .  A
C170       C1023   1.485       .  S
O171        C176   1.269       .  A
O172        C174   1.277       .  A
C173        O175   1.273       .  A
C173       C1183   1.475       .  S
C174       C1213   1.478       .  S
C176       C1000   1.472       .  S
Fe177       O193   2.059       .  S
Fe177       O183   2.107       .  S
Fe177       O190   2.106       .  S
Fe177       O182   2.059       .  S
Fe177       O188   1.942       .  S
Fe178       O181   2.053       .  S
Fe178       O185   2.081       .  S
Fe178       O189   2.038       .  S
Fe178       O194   2.090       .  S
Fe178       O188   1.933       .  S
Fe179       O197   2.095       .  S
Fe179       O184   2.053       .  S
Fe179       O191   2.048       .  S
Fe179       O180   2.084       .  S
Fe179       O188   1.938       .  S
O180        C187   1.270       .  A
O181        C195   1.267       .  A
O182        C187   1.267       .  A
O183        C186   1.280       .  A
O184        C196   1.270       .  A
O185        C198   1.272       .  A
C186        O191   1.272       .  A
C186        C910   1.487       .  S
C187        C953   1.470       .  S
O189        C192   1.267       .  A
O190        C192   1.276       .  A
C192        C920   1.481       .  S
O193        C198   1.269       .  A
O194        C196   1.275       .  A
C195        O197   1.273       .  A
C195        C930   1.476       .  S
C196        C960   1.471       .  S
C198        C940   1.470       .  S
Fe199       O215   2.060       .  S
Fe199       O205   2.108       .  S
Fe199       O212   2.107       .  S
Fe199       O204   2.058       .  S
Fe199       O210   1.942       .  S
Fe200       O203   2.053       .  S
Fe200       O207   2.085       .  S
Fe200       O211   2.040       .  S
Fe200       O216   2.096       .  S
Fe200       O210   1.929       .  S
Fe201       O219   2.102       .  S
Fe201       O206   2.051       .  S
Fe201       O213   2.047       .  S
Fe201       O202   2.084       .  S
Fe201       O210   1.939       .  S
O202        C209   1.271       .  A
O203        C217   1.266       .  A
O204        C209   1.267       .  A
O205        C208   1.279       .  A
O206        C218   1.269       .  A
O207        C220   1.274       .  A
C208        O213   1.272       .  A
C208        C870   1.487       .  S
C209        C943   1.470       .  S
O211        C214   1.267       .  A
O212        C214   1.276       .  A
C214        C880   1.485       .  S
O215        C220   1.270       .  A
O216        C218   1.276       .  A
C217        O219   1.274       .  A
C217        C890   1.479       .  S
C218        C900   1.474       .  S
C220       C2198   1.474       .  S
Fe221       O227   2.114       .  S
Fe221       O234   2.114       .  S
Fe221       O226   2.059       .  S
Fe221      O1485   2.062   1_554  S
Fe221       O232   1.940       .  S
Fe222       O233   2.033       .  S
Fe222       O238   2.098       .  S
Fe222      O1473   2.048   1_554  S
Fe222      O1477   2.081   1_554  S
Fe222       O232   1.928       .  S
Fe223       O241   2.107       .  S
Fe223       O228   2.045       .  S
Fe223       O235   2.047       .  S
Fe223       O224   2.088       .  S
Fe223       O232   1.940       .  S
O224        C231   1.271       .  A
O225      Fe1470   2.050       .  S
O225       C1487   1.264       .  A
O226        C231   1.267       .  A
O227        C230   1.281       .  A
O228        C240   1.269       .  A
O229      Fe1470   2.079       .  S
O229        C242   1.273       .  A
C230        O235   1.272       .  A
C230       C1103   1.489       .  S
C231        C860   1.471       .  S
O233        C236   1.266       .  A
O234        C236   1.278       .  A
C236        C840   1.489       .  S
O237      Fe1469   2.064       .  S
O237        C242   1.271       .  A
O238        C240   1.277       .  A
C239        O241   1.274       .  A
C239       O1473   1.264   1_554  A
C239       C2141   1.481   1_554  S
C240        C963   1.475       .  S
C242        C853   1.472       .  S
Fe243       O259   2.060       .  S
Fe243       O249   2.114       .  S
Fe243       O256   2.113       .  S
Fe243       O248   2.061       .  S
Fe243       O254   1.939       .  S
Fe244       O247   2.052       .  S
Fe244       O251   2.085       .  S
Fe244       O255   2.042       .  S
Fe244       O260   2.100       .  S
Fe244       O254   1.929       .  S
Fe245       O263   2.094       .  S
Fe245       O250   2.046       .  S
Fe245       O257   2.040       .  S
Fe245       O246   2.083       .  S
Fe245       O254   1.937       .  S
O246        C253   1.270       .  A
O247        C261   1.265       .  A
O248        C253   1.268       .  A
O249        C252   1.281       .  A
O250        C262   1.269       .  A
O251        C264   1.274       .  A
C252        O257   1.270       .  A
C252       C1073   1.486       .  S
C253        C850   1.471       .  S
O255        C258   1.268       .  A
O256        C258   1.278       .  A
C258        C830   1.489       .  S
O259        C264   1.270       .  A
O260        C262   1.277       .  A
C261        O263   1.272       .  A
C261        C933   1.476       .  S
C262        C903   1.476       .  S
C264        C863   1.473       .  S
Fe265       O281   2.061       .  S
Fe265       O271   2.110       .  S
Fe265       O278   2.101       .  S
Fe265       O270   2.063       .  S
Fe265       O276   1.941       .  S
Fe266       O269   2.051       .  S
Fe266       O273   2.078       .  S
Fe266       O277   2.039       .  S
Fe266       O282   2.103       .  S
Fe266       O276   1.931       .  S
Fe267       O285   2.097       .  S
Fe267       O272   2.048       .  S
Fe267       O279   2.045       .  S
Fe267       O268   2.080       .  S
Fe267       O276   1.939       .  S
O268        C275   1.270       .  A
O269        C283   1.264       .  A
O270        C275   1.267       .  A
O271        C274   1.280       .  A
O272        C284   1.269       .  A
O273        C286   1.273       .  A
C274        O279   1.272       .  A
C274        C983   1.487       .  S
C275        C790   1.471       .  S
O277        C280   1.268       .  A
O278        C280   1.276       .  A
C280        C923   1.482       .  S
O281        C286   1.270       .  A
O282        C284   1.278       .  A
C283        O285   1.272       .  A
C283        C823   1.477       .  S
C284        C810   1.476       .  S
C286        C800   1.472       .  S
Fe287       O303   2.059       .  S
Fe287       O293   2.109       .  S
Fe287       O300   2.105       .  S
Fe287       O292   2.060       .  S
Fe287       O298   1.941       .  S
Fe288       O291   2.053       .  S
Fe288       O295   2.082       .  S
Fe288       O299   2.041       .  S
Fe288       O304   2.102       .  S
Fe288       O298   1.931       .  S
Fe289       O307   2.094       .  S
Fe289       O294   2.052       .  S
Fe289       O301   2.046       .  S
Fe289       O290   2.079       .  S
Fe289       O298   1.944       .  S
O290        C297   1.268       .  A
O291        C305   1.265       .  A
O292        C297   1.266       .  A
O293        C296   1.281       .  A
O294        C306   1.271       .  A
O295        C308   1.273       .  A
C296        O301   1.272       .  A
C296        C973   1.486       .  S
C297       C2051   1.466       .  S
O299        C302   1.269       .  A
O300        C302   1.277       .  A
C302        C883   1.486       .  S
O303        C308   1.269       .  A
O304        C306   1.278       .  A
C305        O307   1.271       .  A
C305        C783   1.475       .  S
C306        C770   1.478       .  S
C308        C793   1.469       .  S
Fe309       O325   2.062       .  S
Fe309       O315   2.104       .  S
Fe309       O322   2.108       .  S
Fe309       O314   2.063       .  S
Fe309       O320   1.944       .  S
Fe310       O313   2.053       .  S
Fe310       O317   2.079       .  S
Fe310       O321   2.039       .  S
Fe310       O326   2.096       .  S
Fe310       O320   1.932       .  S
Fe311       O329   2.094       .  S
Fe311       O316   2.055       .  S
Fe311       O323   2.049       .  S
Fe311      O1560   2.081   1_554  S
Fe311       O320   1.941       .  S
O312      Fe1559   2.083       .  S
O312        C319   1.271       .  A
O313        C327   1.265       .  A
O314       C1567   1.268   1_554  A
O315        C318   1.279       .  A
O316        C328   1.271       .  A
O317        C330   1.272       .  A
C318        O323   1.273       .  A
C318        C740   1.486       .  S
C319       O1562   1.268       .  A
C319        C753   1.473       .  S
O321        C324   1.268       .  A
O322        C324   1.277       .  A
C324        C843   1.487       .  S
O325        C330   1.269       .  A
O326        C328   1.277       .  A
C327        O329   1.271       .  A
C327        C820   1.476       .  S
C328       C2021   1.477   1_554  S
C330        C760   1.468       .  S
Fe331       O347   2.060       .  S
Fe331       O337   2.110       .  S
Fe331       O344   2.109       .  S
Fe331       O336   2.059       .  S
Fe331       O342   1.942       .  S
Fe332       O335   2.051       .  S
Fe332       O339   2.084       .  S
Fe332       O343   2.040       .  S
Fe332       O348   2.106       .  S
Fe332       O342   1.932       .  S
Fe333       O351   2.096       .  S
Fe333       O338   2.046       .  S
Fe333       O345   2.046       .  S
Fe333       O334   2.084       .  S
Fe333       O342   1.941       .  S
O334        C341   1.271       .  A
O335        C349   1.263       .  A
O336        C341   1.268       .  A
O337        C340   1.280       .  A
O338        C350   1.270       .  A
O339        C352   1.274       .  A
C340        O345   1.272       .  A
C340        C730   1.485       .  S
C341        C763   1.475       .  S
O343        C346   1.267       .  A
O344        C346   1.277       .  A
C346        C833   1.490       .  S
O347        C352   1.269       .  A
O348        C350   1.279       .  A
C349        O351   1.271       .  A
C349        C780   1.477       .  S
C350        C813   1.477       .  S
C352        C750   1.469       .  S
Fe353       O369   2.065       .  S
Fe353       O359   2.114       .  S
Fe353       O366   2.115       .  S
Fe353       O358   2.062       .  S
Fe353       O364   1.942       .  S
Fe354       O357   2.053       .  S
Fe354       O361   2.075       .  S
Fe354       O365   2.033       .  S
Fe354       O370   2.092       .  S
Fe354       O364   1.930       .  S
Fe355       O373   2.104       .  S
Fe355       O360   2.046       .  S
Fe355       O367   2.042       .  S
Fe355       O356   2.081       .  S
Fe355       O364   1.941       .  S
O356        C363   1.269       .  A
O357        C371   1.265       .  A
O358        C363   1.267       .  A
O359        C362   1.282       .  A
O360        C372   1.269       .  A
O361        C374   1.272       .  A
C362        O367   1.272       .  A
C362        C743   1.486       .  S
C363        C720   1.471       .  S
O365        C368   1.267       .  A
O366        C368   1.278       .  A
C368        C680   1.488       .  S
O369        C374   1.271       .  A
O370        C372   1.276       .  A
C371        O373   1.274       .  A
C371        C690   1.481       .  S
C372        C700   1.471       .  S
C374       C1958   1.473   1_554  S
Fe375       O391   2.058       .  S
Fe375       O381   2.110       .  S
Fe375       O388   2.110       .  S
Fe375       O380   2.058       .  S
Fe375       O386   1.942       .  S
Fe376       O379   2.049       .  S
Fe376       O383   2.081       .  S
Fe376       O387   2.033       .  S
Fe376       O392   2.101       .  S
Fe376       O386   1.931       .  S
Fe377       O395   2.102       .  S
Fe377       O382   2.047       .  S
Fe377       O389   2.042       .  S
Fe377       O378   2.084       .  S
Fe377       O386   1.940       .  S
O378        C385   1.270       .  A
O379        C393   1.264       .  A
O380        C385   1.266       .  A
O381        C384   1.280       .  A
O382        C394   1.269       .  A
O383        C396   1.273       .  A
C384        O389   1.271       .  A
C384        C733   1.485       .  S
C385        C713   1.469       .  S
O387        C390   1.267       .  A
O388        C390   1.277       .  A
C390        C650   1.488       .  S
O391        C396   1.268       .  A
O392        C394   1.278       .  A
C393        O395   1.273       .  A
C393        C660   1.477       .  S
C394        C670   1.477       .  S
C396        C723   1.469       .  S
Fe397       O413   2.061       .  S
Fe397       O403   2.110       .  S
Fe397       O410   2.114       .  S
Fe397       O402   2.060       .  S
Fe397       O408   1.943       .  S
Fe398       O401   2.053       .  S
Fe398       O405   2.074       .  S
Fe398       O409   2.037       .  S
Fe398       O414   2.091       .  S
Fe398       O408   1.935       .  S
Fe399       O417   2.097       .  S
Fe399       O404   2.049       .  S
Fe399       O411   2.050       .  S
Fe399       O400   2.083       .  S
Fe399       O408   1.941       .  S
O400        C407   1.271       .  A
O401        C415   1.265       .  A
O402        C407   1.268       .  A
O403        C406   1.281       .  A
O404        C416   1.270       .  A
O405        C418   1.271       .  A
C406        O411   1.272       .  A
C406       C1190   1.488       .  S
C407        C640   1.474       .  S
O409        C412   1.268       .  A
O410        C412   1.278       .  A
C412        C620   1.491       .  S
O413        C418   1.269       .  A
O414        C416   1.275       .  A
C415        O417   1.272       .  A
C415        C663   1.478       .  S
C416        C703   1.471       .  S
C418        C630   1.468       .  S
Fe419       O425   2.103       .  S
Fe419       O432   2.105       .  S
Fe419       O424   2.057       .  S
Fe419      O1683   2.056       .  S
Fe419       O430   1.942       .  S
Fe420       O431   2.031       .  S
Fe420       O436   2.101       .  S
Fe420      O1671   2.050       .  S
Fe420      O1675   2.080       .  S
Fe420       O430   1.928       .  S
Fe421       O439   2.106       .  S
Fe421       O426   2.048       .  S
Fe421       O433   2.049       .  S
Fe421       O422   2.086       .  S
Fe421       O430   1.940       .  S
O422        C429   1.271       .  A
O423      Fe1668   2.050   1_554  S
O423       C1685   1.264   1_554  A
O424        C429   1.266       .  A
O425        C428   1.280       .  A
O426        C438   1.270       .  A
O427      Fe1668   2.078   1_554  S
O427        C440   1.272       .  A
C428        O433   1.273       .  A
C428       C1153   1.485       .  S
C429        C633   1.471       .  S
O431        C434   1.266       .  A
O432        C434   1.275       .  A
C434        C610   1.483       .  S
O435      Fe1667   2.061   1_554  S
O435        C440   1.269       .  A
O436        C438   1.278       .  A
C437        O439   1.274       .  A
C437       O1671   1.264       .  A
C437       C1941   1.482       .  S
C438        C673   1.474       .  S
C440        C643   1.466       .  S
Fe441       O457   2.058       .  S
Fe441       O447   2.113       .  S
Fe441       O454   2.109       .  S
Fe441       O446   2.061       .  S
Fe441       O452   1.942       .  S
Fe442       O445   2.054       .  S
Fe442       O449   2.081       .  S
Fe442       O453   2.040       .  S
Fe442       O458   2.098       .  S
Fe442       O452   1.930       .  S
Fe443       O461   2.099       .  S
Fe443       O448   2.047       .  S
Fe443       O455   2.044       .  S
Fe443       O444   2.084       .  S
Fe443       O452   1.942       .  S
O444        C451   1.270       .  A
O445        C459   1.265       .  A
O446        C451   1.266       .  A
O447        C450   1.281       .  A
O448        C460   1.270       .  A
O449        C462   1.273       .  A
C450        O455   1.272       .  A
C450        C913   1.488       .  S
C451        C573   1.470       .  S
O453        C456   1.268       .  A
O454        C456   1.277       .  A
C456        C623   1.488       .  S
O457        C462   1.269       .  A
O458        C460   1.277       .  A
C459        O461   1.272       .  A
C459        C600   1.477       .  S
C460        C590   1.476       .  S
C462        C580   1.469       .  S
Fe463       O479   2.064       .  S
Fe463       O469   2.114       .  S
Fe463       O476   2.107       .  S
Fe463       O468   2.064       .  S
Fe463       O474   1.942       .  S
Fe464       O467   2.049       .  S
Fe464       O471   2.084       .  S
Fe464       O475   2.032       .  S
Fe464       O480   2.106       .  S
Fe464       O474   1.928       .  S
Fe465       O483   2.096       .  S
Fe465       O477   2.040       .  S
Fe465      O1718   2.047       .  S
Fe465      O1714   2.081       .  S
Fe465       O474   1.937       .  S
O466      Fe1713   2.078   1_554  S
O466        C473   1.268       .  A
O467        C481   1.264       .  A
O468       C1721   1.268       .  A
O469        C472   1.281       .  A
O470      Fe1713   2.049       .  S
O470       C1730   1.270       .  A
O471        C484   1.274       .  A
C472        O477   1.271       .  A
C472        C873   1.486       .  S
C473       O1716   1.267   1_554  A
C473        C583   1.468       .  S
O475        C478   1.267       .  A
O476        C478   1.276       .  A
C478        C613   1.485       .  S
O479        C484   1.271       .  A
O480        C482   1.279       .  A
C481        O483   1.272       .  A
C481        C560   1.476       .  S
C482       O1718   1.270       .  A
C482       C1798   1.480       .  S
C484        C570   1.475       .  S
Fe485       O501   2.060       .  S
Fe485       O491   2.106       .  S
Fe485       O498   2.107       .  S
Fe485       O490   2.059       .  S
Fe485       O496   1.944       .  S
Fe486       O489   2.051       .  S
Fe486       O493   2.082       .  S
Fe486       O497   2.042       .  S
Fe486       O502   2.099       .  S
Fe486       O496   1.935       .  S
Fe487       O505   2.101       .  S
Fe487       O492   2.053       .  S
Fe487       O499   2.049       .  S
Fe487       O488   2.086       .  S
Fe487       O496   1.944       .  S
O488        C495   1.271       .  A
O489        C503   1.266       .  A
O490        C495   1.268       .  A
O491        C494   1.279       .  A
O492        C504   1.269       .  A
O493        C506   1.272       .  A
C494        O499   1.271       .  A
C494       C1033   1.487       .  S
C495       C1778   1.470       .  S
O497        C500   1.269       .  A
O498        C500   1.276       .  A
C500        C683   1.489       .  S
O501        C506   1.269       .  A
O502        C504   1.276       .  A
C503        O505   1.274       .  A
C503        C603   1.479       .  S
C504        C553   1.477       .  S
C506        C540   1.469       .  S
Fe507       O523   2.064       .  S
Fe507       O513   2.110       .  S
Fe507       O520   2.106       .  S
Fe507       O512   2.064       .  S
Fe507       O518   1.941       .  S
Fe508       O511   2.053       .  S
Fe508       O515   2.078       .  S
Fe508       O519   2.037       .  S
Fe508       O524   2.096       .  S
Fe508       O518   1.930       .  S
Fe509       O527   2.094       .  S
Fe509       O514   2.050       .  S
Fe509       O521   2.047       .  S
Fe509       O510   2.077       .  S
Fe509       O518   1.939       .  S
O510        C517   1.269       .  A
O511        C525   1.265       .  A
O512        C517   1.267       .  A
O513        C516   1.281       .  A
O514        C526   1.270       .  A
O515        C528   1.273       .  A
C516        O521   1.272       .  A
C516       C1010   1.487       .  S
C517        C543   1.472       .  S
O519        C522   1.267       .  A
O520        C522   1.276       .  A
C522        C653   1.487       .  S
O523        C528   1.271       .  A
O524        C526   1.276       .  A
C525        O527   1.272       .  A
C525        C563   1.475       .  S
C526        C593   1.473       .  S
C528        C533   1.473       .  S
C529        C530   1.402       .  A
C529        C534   1.396       .  A
C529        H535   1.084       .  S
C530       C1743   1.468       .  S
C530        C531   1.403       .  A
C531        C532   1.400       .  A
C531        H536   1.083       .  S
C532        C533   1.405       .  A
C532        H537   1.083       .  S
C533        C534   1.404       .  A
C534        H538   1.083       .  S
C539        C540   1.402       .  A
C539        C544   1.396       .  A
C539        H545   1.084       .  S
C540        C541   1.404       .  A
C541        C542   1.399       .  A
C541        H546   1.083       .  S
C542        C543   1.405       .  A
C542        H547   1.084       .  S
C543        C544   1.404       .  A
C544        H548   1.083       .  S
C549        C550   1.406       .  A
C549        C554   1.398       .  A
C549        H555   1.083       .  S
C550       C1730   1.479   1_554  S
C550       C1799   1.405   1_554  A
C551       C1798   1.406       .  A
C551       C1800   1.400       .  A
C551        H556   1.083       .  S
C552        C553   1.405       .  A
C552       C1799   1.399   1_554  A
C552       H1805   1.083       .  S
C553        C554   1.404       .  A
C554        H558   1.084       .  S
H557       C1800   1.083       .  S
C559        C560   1.404       .  A
C559        C564   1.398       .  A
C559        H565   1.083       .  S
C560        C561   1.406       .  A
C561        C562   1.399       .  A
C561        H566   1.084       .  S
C562        C563   1.404       .  A
C562        H567   1.083       .  S
C563        C564   1.406       .  A
C564        H568   1.084       .  S
C569        C570   1.405       .  A
C569        C574   1.399       .  A
C569        H575   1.084       .  S
C570        C571   1.404       .  A
C571        C572   1.398       .  A
C571        H576   1.083       .  S
C572        C573   1.403       .  A
C572        H577   1.084       .  S
C573        C574   1.403       .  A
C574        H578   1.083       .  S
C579        C580   1.403       .  A
C579        C584   1.398       .  A
C579        H585   1.084       .  S
C580        C581   1.403       .  A
C581        C582   1.397       .  A
C581        H586   1.083       .  S
C582        C583   1.403       .  A
C582        H587   1.084       .  S
C583        C584   1.403       .  A
C584        H588   1.083       .  S
C589        C590   1.405       .  A
C589        C594   1.397       .  A
C589        H595   1.084       .  S
C590        C591   1.406       .  A
C591        C592   1.397       .  A
C591        H596   1.083       .  S
C592        C593   1.404       .  A
C592        H597   1.084       .  S
C593        C594   1.404       .  A
C594        H598   1.083       .  S
C599        C600   1.404       .  A
C599        C604   1.400       .  A
C599        H605   1.083       .  S
C600        C601   1.405       .  A
C601        C602   1.399       .  A
C601        H606   1.084       .  S
C602        C603   1.406       .  A
C602        H607   1.083       .  S
C603        C604   1.406       .  A
C604        H608   1.083       .  S
C609        C610   1.408       .  A
C609        C614   1.409   1_455  A
C609        H615   1.083       .  S
C610        C611   1.404       .  A
C611        C612   1.386   1_455  A
C611        H616   1.083       .  S
C612        C613   1.404       .  A
C612        H617   1.083       .  S
C613        C614   1.409       .  A
C614        H618   1.082       .  S
C619        C620   1.409       .  A
C619        C624   1.411   1_455  A
C619        H625   1.083       .  S
C620        C621   1.406       .  A
C621        C622   1.389   1_455  A
C621        H626   1.083       .  S
C622        C623   1.404       .  A
C622        H627   1.083       .  S
C623        C624   1.409       .  A
C624        H628   1.083       .  S
C629        C630   1.404       .  A
C629        C634   1.399       .  A
C629        H635   1.084       .  S
C630        C631   1.402       .  A
C631        C632   1.397       .  A
C631        H636   1.083       .  S
C632        C633   1.404       .  A
C632        H637   1.084       .  S
C633        C634   1.403       .  A
C634        H638   1.083       .  S
C639        C640   1.405       .  A
C639        C644   1.397       .  A
C639        H645   1.083       .  S
C640        C641   1.405       .  A
C641        C642   1.398       .  A
C641        H646   1.083       .  S
C642        C643   1.402       .  A
C642        H647   1.083       .  S
C643        C644   1.402       .  A
C644        H648   1.084       .  S
C649        C650   1.409       .  A
C649        C654   1.410   1_455  A
C649        H655   1.083       .  S
C650        C651   1.405       .  A
C651        C652   1.388   1_455  A
C651        H656   1.083       .  S
C652        C653   1.404       .  A
C652        H657   1.083       .  S
C653        C654   1.409       .  A
C654        H658   1.083       .  S
C659        C660   1.405       .  A
C659        C664   1.400       .  A
C659        H665   1.084       .  S
C660        C661   1.405       .  A
C661        C662   1.400       .  A
C661        H666   1.083       .  S
C662        C663   1.406       .  A
C662        H667   1.084       .  S
C663        C664   1.405       .  A
C664        H668   1.082       .  S
C669        C670   1.406       .  A
C669        C674   1.397       .  A
C669        H675   1.083       .  S
C670        C671   1.405       .  A
C671        C672   1.398       .  A
C671        H676   1.083       .  S
C672        C673   1.405       .  A
C672        H677   1.084       .  S
C673        C674   1.403       .  A
C674        H678   1.083       .  S
C679        C680   1.406       .  A
C679        C684   1.389   1_455  A
C679        H685   1.083       .  S
C680        C681   1.408       .  A
C681        C682   1.411   1_455  A
C681        H686   1.083       .  S
C682        C683   1.410       .  A
C682        H687   1.083       .  S
C683        C684   1.404       .  A
C684        H688   1.083       .  S
C689        C690   1.406       .  A
C689        C694   1.401       .  A
C689        H695   1.084       .  S
C690        C691   1.405       .  A
C691       C1940   1.401   1_554  A
C691       H1944   1.082   1_554  S
C692       C1939   1.401       .  A
C692       C1941   1.406       .  A
C692        H697   1.084       .  S
C693       C1685   1.482   1_554  S
C693        C694   1.406       .  A
C693       C1940   1.406   1_554  A
C694        H698   1.083       .  S
H696       C1939   1.082       .  S
C699        C700   1.404       .  A
C699        C704   1.395       .  A
C699        H705   1.083       .  S
C700        C701   1.405       .  A
C701        C702   1.396       .  A
C701        H706   1.084       .  S
C702        C703   1.404       .  A
C702        H707   1.083       .  S
C703        C704   1.404       .  A
C704        H708   1.083       .  S
C709        C710   1.403       .  A
C709        C714   1.396       .  A
C709        H715   1.083       .  S
C710       C1622   1.471       .  S
C710        C711   1.404       .  A
C711        C712   1.399       .  A
C711        H716   1.083       .  S
C712        C713   1.403       .  A
C712        H717   1.083       .  S
C713        C714   1.403       .  A
C714        H718   1.084       .  S
C719        C720   1.404       .  A
C719        C724   1.398       .  A
C719        H725   1.083       .  S
C720        C721   1.404       .  A
C721        C722   1.398       .  A
C721        H726   1.084       .  S
C722        C723   1.402       .  A
C722        H727   1.083       .  S
C723        C724   1.403       .  A
C724        H728   1.084       .  S
C729        C730   1.408       .  A
C729        C734   1.405       .  A
C729        H735   1.083       .  S
C730        C731   1.405       .  A
C731        C732   1.393       .  A
C731        H736   1.083       .  S
C732        C733   1.405       .  A
C732        H737   1.083       .  S
C733        C734   1.407       .  A
C734        H738   1.083       .  S
C739        C740   1.408       .  A
C739        C744   1.404       .  A
C739        H745   1.083       .  S
C740        C741   1.405       .  A
C741        C742   1.394       .  A
C741        H746   1.083       .  S
C742        C743   1.406       .  A
C742        H747   1.083       .  S
C743        C744   1.407       .  A
C744        H748   1.083       .  S
C749        C750   1.403       .  A
C749        C754   1.398       .  A
C749        H755   1.084       .  S
C750        C751   1.402       .  A
C751        C752   1.398       .  A
C751        H756   1.083       .  S
C752        C753   1.404       .  A
C752        H757   1.084       .  S
C753        C754   1.405       .  A
C754        H758   1.083       .  S
C759        C760   1.402       .  A
C759        C764   1.399       .  A
C759        H765   1.083       .  S
C760        C761   1.403       .  A
C761        C762   1.398       .  A
C761        H766   1.084       .  S
C762        C763   1.405       .  A
C762        H767   1.083       .  S
C763        C764   1.406       .  A
C764        H768   1.084       .  S
C769        C770   1.405       .  A
C769       C2022   1.398       .  A
C769       H2023   1.084       .  S
C770        C771   1.406       .  A
C771        C772   1.399       .  A
C771        H776   1.083       .  S
C772        C773   1.405       .  A
C772        H777   1.083       .  S
C773       C1576   1.477       .  S
C773       C2022   1.405       .  A
C774       C2017   1.398   1_554  A
C774       C2021   1.405   1_554  A
C774        H778   1.083       .  S
H775       C2017   1.084   1_554  S
C779        C780   1.405       .  A
C779        C784   1.399       .  A
C779        H785   1.084       .  S
C780        C781   1.405       .  A
C781        C782   1.399       .  A
C781        H786   1.083       .  S
C782        C783   1.405       .  A
C782        H787   1.085       .  S
C783        C784   1.404       .  A
C784        H788   1.083       .  S
C789        C790   1.404       .  A
C789        C794   1.399       .  A
C789        H795   1.084       .  S
C790        C791   1.404       .  A
C791        C792   1.397       .  A
C791        H796   1.083       .  S
C792        C793   1.402       .  A
C792        H797   1.084       .  S
C793        C794   1.403       .  A
C794        H798   1.083       .  S
C799        C800   1.405       .  A
C799        C804   1.399       .  A
C799        H805   1.083       .  S
C800        C801   1.404       .  A
C801        C802   1.396       .  A
C801        H806   1.083       .  S
C802        C803   1.402       .  A
C802        H807   1.084       .  S
C803       C1545   1.465   1_554  S
C803        C804   1.403       .  A
C804        H808   1.083       .  S
C809        C810   1.404       .  A
C809        C814   1.398       .  A
C809        H815   1.084       .  S
C810        C811   1.406       .  A
C811        C812   1.399       .  A
C811        H816   1.084       .  S
C812        C813   1.404       .  A
C812        H817   1.083       .  S
C813        C814   1.406       .  A
C814        H818   1.083       .  S
C819        C820   1.404       .  A
C819        C824   1.399       .  A
C819        H825   1.083       .  S
C820        C821   1.405       .  A
C821        C822   1.399       .  A
C821        H826   1.084       .  S
C822        C823   1.405       .  A
C822        H827   1.083       .  S
C823        C824   1.405       .  A
C824        H828   1.084       .  S
C829        C830   1.405       .  A
C829        C834   1.391       .  A
C829        H835   1.083       .  S
C830        C831   1.409       .  A
C831        C832   1.410       .  A
C831        H836   1.083       .  S
C832        C833   1.409       .  A
C832        H837   1.083       .  S
C833        C834   1.406       .  A
C834        H838   1.083       .  S
C839        C840   1.409       .  A
C839        C844   1.411       .  A
C839        H845   1.083       .  S
C840        C841   1.406       .  A
C841        C842   1.389       .  A
C841        H846   1.083       .  S
C842        C843   1.404       .  A
C842        H847   1.083       .  S
C843        C844   1.409       .  A
C844        H848   1.083       .  S
C849        C850   1.404       .  A
C849        C854   1.400       .  A
C849        H855   1.083       .  S
C850        C851   1.403       .  A
C851        C852   1.397       .  A
C851        H856   1.084       .  S
C852        C853   1.403       .  A
C852        H857   1.083       .  S
C853        C854   1.404       .  A
C854        H858   1.083       .  S
C859        C860   1.404       .  A
C859        C864   1.398       .  A
C859        H865   1.084       .  S
C860        C861   1.403       .  A
C861        C862   1.399       .  A
C861        H866   1.083       .  S
C862        C863   1.405       .  A
C862        H867   1.084       .  S
C863        C864   1.403       .  A
C864        H868   1.083       .  S
C869        C870   1.405       .  A
C869        C874   1.392       .  A
C869        H875   1.083       .  S
C870        C871   1.409       .  A
C871        C872   1.406       .  A
C871        H876   1.083       .  S
C872        C873   1.408       .  A
C872        H877   1.083       .  S
C873        C874   1.406       .  A
C874        H878   1.083       .  S
C879        C880   1.408       .  A
C879        C884   1.409       .  A
C879        H885   1.083       .  S
C880        C881   1.404       .  A
C881        C882   1.390       .  A
C881        H886   1.083       .  S
C882        C883   1.405       .  A
C882        H887   1.083       .  S
C883        C884   1.409       .  A
C884        H888   1.083       .  S
C889        C890   1.405       .  A
C889       C2142   1.401       .  A
C889       H2143   1.082       .  S
C890        C891   1.405       .  A
C891        C892   1.400       .  A
C891        H896   1.084       .  S
C892        C893   1.405       .  A
C892        H897   1.083       .  S
C893       C1487   1.479       .  S
C893       C2142   1.406       .  A
C894       C2137   1.402   1_554  A
C894       C2141   1.406   1_554  A
C894        H898   1.084       .  S
H895       C2137   1.083   1_554  S
C899        C900   1.405       .  A
C899        C904   1.399       .  A
C899        H905   1.083       .  S
C900        C901   1.404       .  A
C901        C902   1.396       .  A
C901        H906   1.083       .  S
C902        C903   1.405       .  A
C902        H907   1.083       .  S
C903        C904   1.405       .  A
C904        H908   1.083       .  S
C909        C910   1.405       .  A
C909        C914   1.394       .  A
C909        H915   1.083       .  S
C910        C911   1.408       .  A
C911        C912   1.405       .  A
C911        H916   1.083       .  S
C912        C913   1.408       .  A
C912        H917   1.083       .  S
C913        C914   1.406       .  A
C914        H918   1.083       .  S
C919        C920   1.407       .  A
C919        C924   1.407       .  A
C919        H925   1.083       .  S
C920        C921   1.404       .  A
C921        C922   1.390       .  A
C921        H926   1.083       .  S
C922        C923   1.404       .  A
C922        H927   1.083       .  S
C923        C924   1.408       .  A
C924        H928   1.083       .  S
C929        C930   1.406       .  A
C929        C934   1.399       .  A
C929        H935   1.084       .  S
C930        C931   1.403       .  A
C931        C932   1.399       .  A
C931        H936   1.083       .  S
C932        C933   1.406       .  A
C932        H937   1.084       .  S
C933        C934   1.404       .  A
C934        H938   1.083       .  S
C939        C940   1.403       .  A
C939        C944   1.397       .  A
C939        H945   1.083       .  S
C940        C941   1.404       .  A
C941        C942   1.398       .  A
C941        H946   1.084       .  S
C942        C943   1.403       .  A
C942        H947   1.083       .  S
C943        C944   1.404       .  A
C944        H948   1.084       .  S
C949        C950   1.403       .  A
C949        C954   1.398       .  A
C949        H955   1.083       .  S
C950       C1468   1.472   1_554  S
C950        C951   1.404       .  A
C951        C952   1.399       .  A
C951        H956   1.084       .  S
C952        C953   1.403       .  A
C952        H957   1.083       .  S
C953        C954   1.403       .  A
C954        H958   1.084       .  S
C959        C960   1.404       .  A
C959        C964   1.396       .  A
C959        H965   1.083       .  S
C960        C961   1.403       .  A
C961        C962   1.397       .  A
C961        H966   1.084       .  S
C962        C963   1.405       .  A
C962        H967   1.083       .  S
C963        C964   1.406       .  A
C964        H968   1.084       .  S
C969        C970   1.407       .  A
C969        C974   1.403       .  A
C969        H975   1.083       .  S
C970        C971   1.406       .  A
C971        C972   1.395       .  A
C971        H976   1.083       .  S
C972        C973   1.406       .  A
C972        H977   1.083       .  S
C973        C974   1.407       .  A
C974        H978   1.082       .  S
C979        C980   1.406       .  A
C979        C984   1.394       .  A
C979        H985   1.083       .  S
C980        C981   1.408       .  A
C981        C982   1.405       .  A
C981        H986   1.083       .  S
C982        C983   1.408       .  A
C982        H987   1.082       .  S
C983        C984   1.405       .  A
C984        H988   1.083       .  S
C989        C990   1.403       .  A
C989        C994   1.397       .  A
C989        H995   1.083       .  S
C990        C991   1.404       .  A
C991        C992   1.398       .  A
C991        H996   1.083       .  S
C992        C993   1.403       .  A
C992        H997   1.083       .  S
C993        C994   1.404       .  A
C994        H998   1.084       .  S
C999       C1000   1.404       .  A
C999       C2252   1.400       .  A
C999       H1005   1.083       .  S
C1000      C1001   1.403       .  A
C1001      C2250   1.397       .  A
C1001      H1006   1.084       .  S
C1002      C1003   1.403       .  A
C1002      C2249   1.398   1_554  A
C1002      H1007   1.083       .  S
C1003      C1004   1.405       .  A
C1004      C2247   1.399       .  A
C1004      H1008   1.084       .  S
C1009      C1010   1.406       .  A
C1009      C1014   1.395       .  A
C1009      H1015   1.083       .  S
C1010      C1011   1.408       .  A
C1011      C1012   1.404       .  A
C1011      H1016   1.083       .  S
C1012      C1013   1.408       .  A
C1012      H1017   1.083       .  S
C1013      C1014   1.406       .  A
C1014      H1018   1.083       .  S
C1019      C1020   1.405       .  A
C1019      C1024   1.388   1_545  A
C1019      H1025   1.083       .  S
C1020      C1021   1.409       .  A
C1021      C1022   1.410   1_545  A
C1021      H1026   1.083       .  S
C1022      C1023   1.409       .  A
C1022      H1027   1.083       .  S
C1023      C1024   1.404       .  A
C1024      H1028   1.083       .  S
C1029      C1030   1.406       .  A
C1029      C1034   1.395       .  A
C1029      H1035   1.083       .  S
C1030      C1031   1.407       .  A
C1031      C1032   1.404       .  A
C1031      H1036   1.083       .  S
C1032      C1033   1.408       .  A
C1032      H1037   1.083       .  S
C1033      C1034   1.406       .  A
C1034      H1038   1.083       .  S
C1039      C1040   1.405       .  A
C1039      C1044   1.386   1_565  A
C1039      H1045   1.083       .  S
C1040      C1041   1.409       .  A
C1041      C1042   1.410   1_565  A
C1041      H1046   1.083       .  S
C1042      C1043   1.409       .  A
C1042      H1047   1.083       .  S
C1043      C1044   1.404       .  A
C1044      H1048   1.083       .  S
C1049      C1050   1.402       .  A
C1049      C2302   1.398   1_554  A
C1049      H1055   1.083       .  S
C1050      C1051   1.402       .  A
C1051      C2300   1.398   1_554  A
C1051      H1056   1.084       .  S
C1052      C1053   1.405       .  A
C1052      C2299   1.399       .  A
C1052      H1057   1.083       .  S
C1053      C1054   1.405       .  A
C1054      C2297   1.398       .  A
C1054      H1058   1.083       .  S
C1059      C1060   1.403       .  A
C1059      C1064   1.397       .  A
C1059      H1065   1.084       .  S
C1060      C1061   1.403       .  A
C1061      C1062   1.398       .  A
C1061      H1066   1.083       .  S
C1062      C1063   1.403       .  A
C1062      H1067   1.084       .  S
C1063      C1064   1.403       .  A
C1064      H1068   1.083       .  S
C1069      C1070   1.409       .  A
C1069      C1074   1.405       .  A
C1069      H1075   1.083       .  S
C1070      C1071   1.404       .  A
C1071      C1072   1.393       .  A
C1071      H1076   1.083       .  S
C1072      C1073   1.406       .  A
C1072      H1077   1.083       .  S
C1073      C1074   1.407       .  A
C1074      H1078   1.083       .  S
C1079      C1080   1.406       .  A
C1079      C1084   1.399       .  A
C1079      H1085   1.083       .  S
C1080      C1081   1.407       .  A
C1081      C1082   1.399       .  A
C1081      H1086   1.083       .  S
C1082      C1083   1.404       .  A
C1082      H1087   1.084       .  S
C1083      C1084   1.403       .  A
C1084      H1088   1.083       .  S
C1089      C1090   1.405       .  A
C1089      C1094   1.399       .  A
C1089      H1095   1.085       .  S
C1090      C1091   1.404       .  A
C1091      C1092   1.399       .  A
C1091      H1096   1.083       .  S
C1092      C1093   1.406       .  A
C1092      H1097   1.084       .  S
C1093      C1094   1.404       .  A
C1094      H1098   1.082       .  S
C1099      C1100   1.406       .  A
C1099      C1104   1.395       .  A
C1099      H1105   1.083       .  S
C1100      C2349   1.408       .  A
C1101      C2348   1.407       .  A
C1101      C2350   1.405       .  A
C1101      H1106   1.083       .  S
C1102      C1103   1.408       .  A
C1102      C2349   1.405       .  A
C1102      H2355   1.083       .  S
C1103      C1104   1.406       .  A
C1104      H1108   1.083       .  S
H1107      C2350   1.083       .  S
C1109      C1110   1.406       .  A
C1109      C1114   1.400       .  A
C1109      H1115   1.083       .  S
C1110      C1111   1.407       .  A
C1111      C1112   1.396       .  A
C1111      H1116   1.084       .  S
C1112      C1113   1.403       .  A
C1112      H1117   1.083       .  S
C1113      C1114   1.405       .  A
C1114      H1118   1.083       .  S
C1119      C1120   1.405       .  A
C1119      C1124   1.398       .  A
C1119      H1125   1.085       .  S
C1120      C1121   1.404       .  A
C1121      C1122   1.399       .  A
C1121      H1126   1.082       .  S
C1122      C1123   1.406       .  A
C1122      H1127   1.084       .  S
C1123      C1124   1.405       .  A
C1124      H1128   1.082       .  S
C1129      C1130   1.404       .  A
C1129      C1134   1.401       .  A
C1129      H1135   1.083       .  S
C1130      C1131   1.404       .  A
C1131      C1132   1.397       .  A
C1131      H1136   1.084       .  S
C1132      C1133   1.403       .  A
C1132      H1137   1.083       .  S
C1133      C1134   1.405       .  A
C1134      H1138   1.083       .  S
C1139      C1140   1.404       .  A
C1139      C1144   1.399       .  A
C1139      H1145   1.084       .  S
C1140      C1141   1.402       .  A
C1141      C1142   1.397       .  A
C1141      H1146   1.083       .  S
C1142      C1143   1.404       .  A
C1142      H1147   1.084       .  S
C1143      C1144   1.404       .  A
C1144      H1148   1.083       .  S
C1149      C1150   1.407       .  A
C1149      C1154   1.394       .  A
C1149      H1155   1.083       .  S
C1150      C1151   1.407       .  A
C1151      C1152   1.403       .  A
C1151      H2404   1.083       .  S
C1152      C1153   1.408       .  A
C1152      H1157   1.083       .  S
C1153      C1154   1.405       .  A
C1154      H1158   1.083       .  S
H1156      C2399   1.083       .  S
C1159      C1164   1.388   1_565  A
C1159      C2408   1.405       .  A
C1159      H1165   1.083       .  S
C1160      C1161   1.409       .  A
C1160      C2407   1.405   1_556  A
C1161      C1162   1.411   1_566  A
C1161      H1166   1.083       .  S
C1162      C1163   1.410       .  A
C1162      H1167   1.083       .  S
C1163      C2412   1.405       .  A
C1164      C2411   1.405       .  A
C1164      H1168   1.083       .  S
C1169      C1170   1.406       .  A
C1169      C1174   1.398       .  A
C1169      H1175   1.083       .  S
C1170      C1171   1.405       .  A
C1171      C1172   1.399       .  A
C1171      H1176   1.083       .  S
C1172      C1173   1.406       .  A
C1172      H1177   1.083       .  S
C1173      C1174   1.405       .  A
C1174      H1178   1.083       .  S
C1179      C1180   1.404       .  A
C1179      C1184   1.399       .  A
C1179      H1185   1.082       .  S
C1180      C1181   1.405       .  A
C1181      C1182   1.398       .  A
C1181      H1186   1.085       .  S
C1182      C1183   1.405       .  A
C1182      H1187   1.082       .  S
C1183      C1184   1.405       .  A
C1184      H1188   1.085       .  S
C1189      C1190   1.406       .  A
C1189      C1194   1.396       .  A
C1189      H1195   1.083       .  S
C1190      C1191   1.408       .  A
C1191      C1192   1.404       .  A
C1191      H1196   1.083       .  S
C1192      C1193   1.408       .  A
C1192      H1197   1.082       .  S
C1193      C1194   1.407       .  A
C1194      H1198   1.083       .  S
C1199      C1200   1.408       .  A
C1199      C1204   1.410   1_565  A
C1199      H1205   1.083       .  S
C1200      C1201   1.405       .  A
C1201      C1202   1.390   1_565  A
C1201      H1206   1.083       .  S
C1202      C1203   1.404       .  A
C1202      H1207   1.083       .  S
C1203      C1204   1.408       .  A
C1204      H1208   1.083       .  S
C1209      C1210   1.405       .  A
C1209      C1214   1.399       .  A
C1209      H1215   1.084       .  S
C1210      C1211   1.404       .  A
C1211      C1212   1.398       .  A
C1211      H1216   1.083       .  S
C1212      C1213   1.405       .  A
C1212      H1217   1.083       .  S
C1213      C1214   1.405       .  A
C1214      H1218   1.083       .  S
C1219      C1220   1.404       .  A
C1219      C1224   1.400       .  A
C1219      H1225   1.083       .  S
C1220      C1221   1.403       .  A
C1221      C1222   1.398       .  A
C1221      H1226   1.084       .  S
C1222      C1223   1.403       .  A
C1222      H1227   1.083       .  S
C1223      C1224   1.405       .  A
C1224      H1228   1.084       .  S
C1229      C1230   1.403       .  A
C1229      C1234   1.396       .  A
C1229      H1235   1.083       .  S
C1230      C1231   1.404       .  A
C1231      C1232   1.399       .  A
C1231      H1236   1.083       .  S
C1232      C1233   1.403       .  A
C1232      H1237   1.083       .  S
C1233      C1234   1.402       .  A
C1234      H1238   1.084       .  S
C1239      C1240   1.406       .  A
C1239      C1244   1.400       .  A
C1239      H1245   1.084       .  S
C1240      C1241   1.405       .  A
C1241      C1242   1.400       .  A
C1241      H1246   1.082       .  S
C1242      C1243   1.405       .  A
C1242      H1247   1.085       .  S
C1243      C1244   1.405       .  A
C1244      H1248   1.083       .  S
Fe1249     O1265   2.058       .  S
Fe1249     O1255   2.109       .  S
Fe1249     O1262   2.111       .  S
Fe1249     O1254   2.060       .  S
Fe1249     O1260   1.942       .  S
Fe1250     O1253   2.050       .  S
Fe1250     O1257   2.084       .  S
Fe1250     O1261   2.036       .  S
Fe1250     O1266   2.099       .  S
Fe1250     O1260   1.931       .  S
Fe1251     O1269   2.097       .  S
Fe1251     O1256   2.053       .  S
Fe1251     O1263   2.049       .  S
Fe1251     O1252   2.084       .  S
Fe1251     O1260   1.940       .  S
O1252      C1259   1.271       .  A
O1253      C1267   1.266       .  A
O1254      C1259   1.267       .  A
O1255      C1258   1.280       .  A
O1256      C1268   1.270       .  A
O1257      C1270   1.273       .  A
C1258      O1263   1.272       .  A
C1258      C2441   1.488       .  S
C1259      C2468   1.471       .  S
O1261      C1264   1.267       .  A
O1262      C1264   1.277       .  A
C1264      C2448   1.484       .  S
O1265      C1270   1.269       .  A
O1266      C1268   1.277       .  A
C1267      O1269   1.273       .  A
C1267      C2488   1.476       .  S
C1268      C2458   1.476       .  S
C1270      C2478   1.471       .  S
Fe1271     O1287   2.060       .  S
Fe1271     O1277   2.112       .  S
Fe1271     O1284   2.114       .  S
Fe1271     O1282   1.941       .  S
Fe1272     O1275   2.051       .  S
Fe1272     O1279   2.084       .  S
Fe1272     O1283   2.037       .  S
Fe1272     O1282   1.930       .  S
Fe1273     O1278   2.051       .  S
Fe1273     O1285   2.043       .  S
Fe1273     O1274   2.081       .  S
O1274      C1281   1.270       .  A
O1275      C1289   1.264       .  A
O1276      C1281   1.267       .  A
O1277      C1280   1.281       .  A
O1278      C1290   1.270       .  A
O1279      C1292   1.273       .  A
C1280      C2398   1.486       .  S
C1281      C2481   1.470       .  S
C1286      C2408   1.488       .  S
O1287      C1292   1.269       .  A
O1288      C1290   1.278       .  A
C1289      O1291   1.272       .  A
C1289      C2428   1.475       .  S
C1290      C2418   1.479       .  S
C1292      C2471   1.472       .  S
Fe1293     O1309   2.062       .  S
Fe1293     O1299   2.115       .  S
Fe1293     O1306   2.109       .  S
Fe1293     O1304   1.940       .  S
Fe1294     O1297   2.050       .  S
Fe1294     O1301   2.085       .  S
Fe1294     O1305   2.036       .  S
Fe1294     O1304   1.930       .  S
Fe1295     O1300   2.046       .  S
Fe1295     O1296   2.079       .  S
O1296      C1303   1.269       .  A
O1297      C1311   1.264       .  A
O1298      C1303   1.267       .  A
O1299      C1302   1.282       .  A
O1300      C1312   1.270       .  A
O1301      C1314   1.274       .  A
C1302      O1307   1.272       .  A
C1302      C2348   1.488       .  S
C1303      C2381   1.473       .  S
O1305      C1308   1.267       .  A
O1306      C1308   1.277       .  A
C1308      C2411   1.487       .  S
O1309      C1314   1.270       .  A
O1310      C1312   1.280   1_554  A
C1311      O1313   1.271       .  A
C1311      C2368   1.472       .  S
C1312      C2358   1.481       .  S
C1314      C2388   1.472       .  S
Fe1315     O1331   2.063       .  S
Fe1315     O1321   2.108       .  S
Fe1315     O1328   2.103       .  S
Fe1315     O1320   2.061       .  S
Fe1315     O1326   1.944       .  S
Fe1316     O1319   2.052       .  S
Fe1316     O1323   2.085       .  S
Fe1316     O1327   2.039       .  S
Fe1316     O1332   2.104       .  S
Fe1316     O1326   1.932       .  S
Fe1317     O1335   2.095       .  S
Fe1317     O1322   2.052       .  S
Fe1317     O1329   2.048       .  S
Fe1317     O1318   2.082       .  S
Fe1317     O1326   1.944       .  S
O1318      C1325   1.269       .  A
O1319      C1333   1.264       .  A
O1320      C1325   1.268       .  A
O1321      C1324   1.280       .  A
O1322      C1334   1.271       .  A
O1323      C1336   1.274       .  A
C1324      O1329   1.272       .  A
C1324      C2318   1.486       .  S
C1325      C2391   1.471       .  S
O1327      C1330   1.267       .  A
O1328      C1330   1.275       .  A
C1330      C2451   1.485       .  S
O1331      C1336   1.271       .  A
O1332      C1334   1.280       .  A
C1333      O1335   1.271       .  A
C1333      C2338   1.476       .  S
C1334      C2328   1.483       .  S
C1336      C2378   1.471       .  S
Fe1337     O1353   2.060       .  S
Fe1337     O1343   2.105       .  S
Fe1337     O1350   2.107       .  S
Fe1337     O1342   2.059       .  S
Fe1337     O1348   1.942       .  S
Fe1338     O1341   2.050       .  S
Fe1338     O1345   2.084       .  S
Fe1338     O1349   2.035       .  S
Fe1338     O1354   2.100       .  S
Fe1338     O1348   1.931       .  S
Fe1339     O1357   2.092       .  S
Fe1339     O1344   2.058       .  S
Fe1339     O1351   2.049       .  S
Fe1339     O1340   2.082       .  S
Fe1339     O1348   1.937       .  S
O1340      C1347   1.271       .  A
O1341      C1355   1.267       .  A
O1342      C1347   1.267       .  A
O1343      C1346   1.279       .  A
O1344      C1356   1.270       .  A
O1345      C1358   1.272       .  A
C1346      O1351   1.271       .  A
C1346      C2278   1.487       .  S
C1347      C2308   1.468       .  S
O1349      C1352   1.268       .  A
O1350      C1352   1.276       .  A
C1352      C2291   1.482       .  S
O1353      C1358   1.268       .  A
O1354      C1356   1.276       .  A
C1355      O1357   1.273       .  A
C1355      C2371   1.475       .  S
C1356      C2331   1.476       .  S
C1358      C2298   1.470       .  S
Fe1359     O1375   2.060       .  S
Fe1359     O1365   2.108       .  S
Fe1359     O1372   2.106       .  S
Fe1359     O1364   2.061       .  S
Fe1359     O1370   1.944       .  S
Fe1360     O1363   2.053       .  S
Fe1360     O1367   2.079       .  S
Fe1360     O1371   2.038       .  S
Fe1360     O1376   2.101       .  S
Fe1360     O1370   1.932       .  S
Fe1361     O1379   2.096       .  S
Fe1361     O1366   2.054       .  S
Fe1361     O1373   2.048       .  S
Fe1361     O1362   2.081       .  S
Fe1361     O1370   1.941       .  S
O1362      C1369   1.270       .  A
O1363      C1377   1.265       .  A
O1364      C1369   1.268       .  A
O1365      C1368   1.280       .  A
O1366      C1378   1.270       .  A
O1367      C1380   1.273       .  A
C1368      O1373   1.272       .  A
C1368      C2261   1.486       .  S
C1369      C2301   1.473       .  S
O1371      C1374   1.268       .  A
O1372      C1374   1.277       .  A
C1374      C2268   1.485       .  S
O1375      C1380   1.270       .  A
O1376      C1378   1.278       .  A
C1377      O1379   1.272       .  A
C1377      C2341   1.478       .  S
C1378      C2361   1.475       .  S
C1380      C2311   1.470       .  S
Fe1381     O1397   2.066       .  S
Fe1381     O1387   2.109       .  S
Fe1381     O1394   2.104       .  S
Fe1381     O1386   2.067       .  S
Fe1381     O1392   1.943       .  S
Fe1382     O1385   2.051       .  S
Fe1382     O1389   2.080       .  S
Fe1382     O1393   2.034       .  S
Fe1382     O1398   2.104       .  S
Fe1382     O1392   1.928       .  S
Fe1383     O1401   2.093       .  S
Fe1383     O1388   2.053       .  S
Fe1383     O1395   2.048       .  S
Fe1383     O1384   2.078       .  S
Fe1383     O1392   1.941       .  S
O1384      C1391   1.269       .  A
O1385      C1399   1.264       .  A
O1386      C1391   1.268       .  A
O1387      C1390   1.281       .  A
O1388      C1400   1.271       .  A
O1389      C1402   1.274       .  A
C1390      O1395   1.272       .  A
C1390      C2228   1.486       .  S
C1391      C2251   1.474       .  S
O1393      C1396   1.267       .  A
O1394      C1396   1.275       .  A
C1396      C2288   1.484       .  S
O1397      C1402   1.271       .  A
O1398      C1400   1.279       .  A
C1399      O1401   1.271       .  A
C1399      C2491   1.475       .  S
C1400      C2421   1.479       .  S
C1402      C2238   1.472       .  S
Fe1403     O1419   2.058       .  S
Fe1403     O1409   2.106       .  S
Fe1403     O1416   2.109       .  S
Fe1403     O1408   2.057       .  S
Fe1403     O1414   1.941       .  S
Fe1404     O1407   2.049       .  S
Fe1404     O1411   2.088       .  S
Fe1404     O1415   2.035       .  S
Fe1404     O1420   2.101       .  S
Fe1404     O1414   1.929       .  S
Fe1405     O1423   2.099       .  S
Fe1405     O1410   2.051       .  S
Fe1405     O1417   2.048       .  S
Fe1405     O1406   2.088       .  S
Fe1405     O1414   1.938       .  S
O1406      C1413   1.272       .  A
O1407      C1421   1.265       .  A
O1408      C1413   1.267       .  A
O1409      C1412   1.279       .  A
O1410      C1422   1.270       .  A
O1411      C1424   1.274       .  A
C1412      O1417   1.271       .  A
C1412      C2218   1.484       .  S
C1413      C2241   1.471       .  S
O1415      C1418   1.267       .  A
O1416      C1418   1.276       .  A
C1418      C2271   1.483       .  S
O1419      C1424   1.269       .  A
O1420      C1422   1.277       .  A
C1421      O1423   1.274       .  A
C1421      C2431   1.477       .  S
C1422      C2461   1.479       .  S
C1424      C2248   1.472       .  S
Fe1425     O1441   2.063       .  S
Fe1425     O1431   2.106       .  S
Fe1425     O1438   2.104       .  S
Fe1425     O1430   2.061       .  S
Fe1425     O1436   1.942       .  S
Fe1426     O1429   2.053       .  S
Fe1426     O1433   2.081       .  S
Fe1426     O1437   2.037       .  S
Fe1426     O1442   2.091       .  S
Fe1426     O1436   1.932       .  S
Fe1427     O1445   2.097       .  S
Fe1427     O1432   2.053       .  S
Fe1427     O1439   2.048       .  S
Fe1427     O1428   2.084       .  S
Fe1427     O1436   1.938       .  S
O1428      C1435   1.270       .  A
O1429      C1443   1.267       .  A
O1430      C1435   1.267       .  A
O1431      C1434   1.279       .  A
O1432      C1444   1.270       .  A
O1433      C1446   1.273       .  A
C1434      O1439   1.272       .  A
C1434      C2158   1.486       .  S
C1435      C2201   1.471       .  S
O1437      C1440   1.267       .  A
O1438      C1440   1.276       .  A
C1440      C2168   1.481       .  S
O1441      C1446   1.270       .  A
O1442      C1444   1.275       .  A
C1443      O1445   1.273       .  A
C1443      C2178   1.477       .  S
C1444      C2208   1.471       .  S
C1446      C2188   1.474       .  S
Fe1447     O1463   2.062       .  S
Fe1447     O1453   2.108       .  S
Fe1447     O1460   2.107       .  S
Fe1447     O1452   2.059       .  S
Fe1447     O1458   1.944       .  S
Fe1448     O1451   2.052       .  S
Fe1448     O1455   2.082       .  S
Fe1448     O1459   2.035       .  S
Fe1448     O1464   2.101       .  S
Fe1448     O1458   1.930       .  S
Fe1449     O1467   2.104       .  S
Fe1449     O1454   2.050       .  S
Fe1449     O1461   2.046       .  S
Fe1449     O1450   2.086       .  S
Fe1449     O1458   1.940       .  S
O1450      C1457   1.271       .  A
O1451      C1465   1.265       .  A
O1452      C1457   1.267       .  A
O1453      C1456   1.280       .  A
O1454      C1466   1.270       .  A
O1455      C1468   1.273       .  A
C1456      O1461   1.272       .  A
C1456      C2118   1.486       .  S
C1457      C2191   1.470       .  S
O1459      C1462   1.268       .  A
O1460      C1462   1.276       .  A
C1462      C2128   1.487       .  S
O1463      C1468   1.270       .  A
O1464      C1466   1.277       .  A
C1465      O1467   1.274       .  A
C1465      C2138   1.479       .  S
C1466      C2148   1.476       .  S
Fe1469     O1475   2.112       .  S
Fe1469     O1482   2.112       .  S
Fe1469     O1474   2.061       .  S
Fe1469     O1480   1.941       .  S
Fe1470     O1481   2.037       .  S
Fe1470     O1486   2.097       .  S
Fe1470     O1480   1.930       .  S
Fe1471     O1489   2.104       .  S
Fe1471     O1476   2.047       .  S
Fe1471     O1483   2.049       .  S
Fe1471     O1472   2.088       .  S
Fe1471     O1480   1.942       .  S
O1472      C1479   1.271       .  A
O1474      C1479   1.267       .  A
O1475      C1478   1.281       .  A
O1476      C1488   1.270       .  A
O1477      C1490   1.273       .  A
C1478      O1483   1.272       .  A
C1478      C2351   1.488       .  S
C1479      C2108   1.471       .  S
O1481      C1484   1.267       .  A
O1482      C1484   1.277       .  A
C1484      C2088   1.489       .  S
O1485      C1490   1.270       .  A
O1486      C1488   1.277       .  A
C1487      O1489   1.273       .  A
C1488      C2211   1.476       .  S
C1490      C2101   1.471       .  S
Fe1491     O1507   2.063       .  S
Fe1491     O1497   2.115       .  S
Fe1491     O1504   2.115       .  S
Fe1491     O1496   2.062       .  S
Fe1491     O1502   1.940       .  S
Fe1492     O1495   2.051       .  S
Fe1492     O1499   2.084       .  S
Fe1492     O1503   2.041       .  S
Fe1492     O1508   2.101       .  S
Fe1492     O1502   1.928       .  S
Fe1493     O1511   2.097       .  S
Fe1493     O1498   2.048       .  S
Fe1493     O1505   2.041       .  S
Fe1493     O1494   2.083       .  S
Fe1493     O1502   1.939       .  S
O1494      C1501   1.270       .  A
O1495      C1509   1.265       .  A
O1496      C1501   1.268       .  A
O1497      C1500   1.281       .  A
O1498      C1510   1.270       .  A
O1499      C1512   1.274       .  A
C1500      O1505   1.271       .  A
C1500      C2321   1.487       .  S
C1501      C2098   1.471       .  S
O1503      C1506   1.268       .  A
O1504      C1506   1.278       .  A
C1506      C2078   1.491       .  S
O1507      C1512   1.270       .  A
O1508      C1510   1.278       .  A
C1509      O1511   1.272       .  A
C1509      C2181   1.476       .  S
C1510      C2151   1.477       .  S
C1512      C2111   1.475       .  S
Fe1513     O1529   2.061       .  S
Fe1513     O1519   2.108       .  S
Fe1513     O1526   2.102       .  S
Fe1513     O1518   2.064       .  S
Fe1513     O1524   1.940       .  S
Fe1514     O1517   2.051       .  S
Fe1514     O1521   2.078       .  S
Fe1514     O1525   2.037       .  S
Fe1514     O1530   2.102       .  S
Fe1514     O1524   1.931       .  S
Fe1515     O1533   2.097       .  S
Fe1515     O1520   2.047       .  S
Fe1515     O1527   2.046       .  S
Fe1515     O1516   2.079       .  S
Fe1515     O1524   1.939       .  S
O1516      C1523   1.269       .  A
O1517      C1531   1.264       .  A
O1518      C1523   1.268       .  A
O1519      C1522   1.280       .  A
O1520      C1532   1.269       .  A
O1521      C1534   1.273       .  A
C1522      O1527   1.272       .  A
C1522      C2231   1.486       .  S
C1523      C2038   1.472       .  S
O1525      C1528   1.268       .  A
O1526      C1528   1.276       .  A
C1528      C2171   1.482       .  S
O1529      C1534   1.271       .  A
O1530      C1532   1.278       .  A
C1531      O1533   1.272       .  A
C1531      C2071   1.477       .  S
C1532      C2058   1.475       .  S
C1534      C2048   1.472       .  S
Fe1535     O1551   2.059       .  S
Fe1535     O1541   2.105       .  S
Fe1535     O1548   2.106       .  S
Fe1535     O1540   2.059       .  S
Fe1535     O1546   1.943       .  S
Fe1536     O1539   2.052       .  S
Fe1536     O1543   2.082       .  S
Fe1536     O1547   2.036       .  S
Fe1536     O1552   2.099       .  S
Fe1536     O1546   1.931       .  S
Fe1537     O1555   2.095       .  S
Fe1537     O1542   2.052       .  S
Fe1537     O1549   2.046       .  S
Fe1537     O1538   2.078       .  S
Fe1537     O1546   1.943       .  S
O1538      C1545   1.268       .  A
O1539      C1553   1.266       .  A
O1540      C1545   1.266       .  A
O1541      C1544   1.280       .  A
O1542      C1554   1.270       .  A
O1543      C1556   1.273       .  A
C1544      O1549   1.272       .  A
C1544      C2221   1.484       .  S
O1547      C1550   1.268       .  A
O1548      C1550   1.276       .  A
C1550      C2131   1.486       .  S
O1551      C1556   1.269       .  A
O1552      C1554   1.277       .  A
C1553      O1555   1.272       .  A
C1553      C2031   1.475       .  S
C1554      C2018   1.477       .  S
C1556      C2041   1.468       .  S
Fe1557     O1573   2.060       .  S
Fe1557     O1563   2.107       .  S
Fe1557     O1570   2.111       .  S
Fe1557     O1562   2.062       .  S
Fe1557     O1568   1.942       .  S
Fe1558     O1561   2.052       .  S
Fe1558     O1565   2.081       .  S
Fe1558     O1569   2.039       .  S
Fe1558     O1574   2.096       .  S
Fe1558     O1568   1.930       .  S
Fe1559     O1577   2.095       .  S
Fe1559     O1564   2.055       .  S
Fe1559     O1571   2.049       .  S
Fe1559     O1568   1.940       .  S
O1560      C1567   1.270       .  A
O1561      C1575   1.265       .  A
O1563      C1566   1.279       .  A
O1564      C1576   1.271       .  A
O1565      C1578   1.272       .  A
C1566      O1571   1.272       .  A
C1566      C1988   1.486       .  S
C1567      C2001   1.474       .  S
O1569      C1572   1.268       .  A
O1570      C1572   1.277       .  A
C1572      C2091   1.488       .  S
O1573      C1578   1.269       .  A
O1574      C1576   1.277       .  A
C1575      O1577   1.272       .  A
C1575      C2068   1.476       .  S
C1578      C2008   1.468       .  S
Fe1579     O1595   2.059       .  S
Fe1579     O1585   2.113       .  S
Fe1579     O1592   2.112       .  S
Fe1579     O1584   2.059       .  S
Fe1579     O1590   1.942       .  S
Fe1580     O1583   2.052       .  S
Fe1580     O1587   2.083       .  S
Fe1580     O1591   2.041       .  S
Fe1580     O1596   2.105       .  S
Fe1580     O1590   1.932       .  S
Fe1581     O1599   2.095       .  S
Fe1581     O1586   2.044       .  S
Fe1581     O1593   2.043       .  S
Fe1581     O1582   2.082       .  S
Fe1581     O1590   1.942       .  S
O1582      C1589   1.270       .  A
O1583      C1597   1.263       .  A
O1584      C1589   1.267       .  A
O1585      C1588   1.281       .  A
O1586      C1598   1.270       .  A
O1587      C1600   1.274       .  A
C1588      O1593   1.271       .  A
C1588      C1978   1.487       .  S
C1589      C2011   1.475       .  S
O1591      C1594   1.268       .  A
O1592      C1594   1.278       .  A
C1594      C2081   1.492       .  S
O1595      C1600   1.269       .  A
O1596      C1598   1.279       .  A
C1597      O1599   1.271       .  A
C1597      C2028   1.477       .  S
C1598      C2061   1.476       .  S
C1600      C1998   1.468       .  S
Fe1601     O1617   2.063       .  S
Fe1601     O1607   2.114       .  S
Fe1601     O1614   2.116       .  S
Fe1601     O1606   2.061       .  S
Fe1601     O1612   1.943       .  S
Fe1602     O1605   2.053       .  S
Fe1602     O1609   2.076       .  S
Fe1602     O1613   2.033       .  S
Fe1602     O1618   2.094       .  S
Fe1602     O1612   1.930       .  S
Fe1603     O1621   2.103       .  S
Fe1603     O1608   2.048       .  S
Fe1603     O1615   2.043       .  S
Fe1603     O1604   2.080       .  S
Fe1603     O1612   1.941       .  S
O1604      C1611   1.269       .  A
O1605      C1619   1.265       .  A
O1606      C1611   1.267       .  A
O1607      C1610   1.282       .  A
O1608      C1620   1.269       .  A
O1609      C1622   1.272       .  A
C1610      O1615   1.273       .  A
C1610      C1991   1.486       .  S
C1611      C1968   1.469       .  S
O1613      C1616   1.267       .  A
O1614      C1616   1.278       .  A
C1616      C1928   1.489       .  S
O1617      C1622   1.270       .  A
O1618      C1620   1.276       .  A
C1619      O1621   1.273       .  A
C1619      C1938   1.481       .  S
C1620      C1948   1.472       .  S
Fe1623     O1639   2.057       .  S
Fe1623     O1629   2.111       .  S
Fe1623     O1636   2.108       .  S
Fe1623     O1628   2.057       .  S
Fe1623     O1634   1.942       .  S
Fe1624     O1627   2.050       .  S
Fe1624     O1631   2.081       .  S
Fe1624     O1635   2.035       .  S
Fe1624     O1640   2.102       .  S
Fe1624     O1634   1.931       .  S
Fe1625     O1643   2.102       .  S
Fe1625     O1630   2.046       .  S
Fe1625     O1637   2.044       .  S
Fe1625     O1626   2.086       .  S
Fe1625     O1634   1.941       .  S
O1626      C1633   1.270       .  A
O1627      C1641   1.264       .  A
O1628      C1633   1.266       .  A
O1629      C1632   1.280       .  A
O1630      C1642   1.270       .  A
O1631      C1644   1.273       .  A
C1632      O1637   1.272       .  A
C1632      C1981   1.487       .  S
C1633      C1961   1.469       .  S
O1635      C1638   1.267       .  A
O1636      C1638   1.277       .  A
C1638      C1898   1.486       .  S
O1639      C1644   1.269       .  A
O1640      C1642   1.278       .  A
C1641      O1643   1.273       .  A
C1641      C1908   1.477       .  S
C1642      C1918   1.477       .  S
C1644      C1971   1.468       .  S
Fe1645     O1661   2.063       .  S
Fe1645     O1651   2.110       .  S
Fe1645     O1658   2.116       .  S
Fe1645     O1650   2.060       .  S
Fe1645     O1656   1.942       .  S
Fe1646     O1649   2.051       .  S
Fe1646     O1653   2.077       .  S
Fe1646     O1657   2.036       .  S
Fe1646     O1662   2.092       .  S
Fe1646     O1656   1.934       .  S
Fe1647     O1665   2.098       .  S
Fe1647     O1652   2.050       .  S
Fe1647     O1659   2.048       .  S
Fe1647     O1648   2.082       .  S
Fe1647     O1656   1.940       .  S
O1648      C1655   1.271       .  A
O1649      C1663   1.265       .  A
O1650      C1655   1.268       .  A
O1651      C1654   1.280       .  A
O1652      C1664   1.270       .  A
O1653      C1666   1.271       .  A
C1654      O1659   1.272       .  A
C1654      C2438   1.488       .  S
C1655      C1888   1.473       .  S
O1657      C1660   1.267       .  A
O1658      C1660   1.278       .  A
C1660      C1868   1.490       .  S
O1661      C1666   1.270       .  A
O1662      C1664   1.275       .  A
C1663      O1665   1.273       .  A
C1663      C1911   1.478       .  S
C1664      C1951   1.473       .  S
C1666      C1878   1.471       .  S
Fe1667     O1673   2.104       .  S
Fe1667     O1680   2.104       .  S
Fe1667     O1672   2.063       .  S
Fe1667     O1678   1.942       .  S
Fe1668     O1679   2.031       .  S
Fe1668     O1684   2.099       .  S
Fe1668     O1678   1.929       .  S
Fe1669     O1687   2.106       .  S
Fe1669     O1674   2.049       .  S
Fe1669     O1681   2.049       .  S
Fe1669     O1670   2.086       .  S
Fe1669     O1678   1.941       .  S
O1670      C1677   1.270       .  A
O1672      C1677   1.267       .  A
O1673      C1676   1.280       .  A
O1674      C1686   1.270       .  A
O1675      C1688   1.273       .  A
C1676      O1681   1.273       .  A
C1676      C2401   1.485       .  S
C1677      C1881   1.473       .  S
O1679      C1682   1.267       .  A
O1680      C1682   1.276       .  A
C1682      C1858   1.483       .  S
O1683      C1688   1.268       .  A
O1684      C1686   1.278       .  A
C1685      O1687   1.274       .  A
C1686      C1921   1.473       .  S
C1688      C1891   1.465       .  S
Fe1689     O1705   2.061       .  S
Fe1689     O1695   2.112       .  S
Fe1689     O1702   2.109       .  S
Fe1689     O1694   2.063       .  S
Fe1689     O1700   1.942       .  S
Fe1690     O1693   2.054       .  S
Fe1690     O1697   2.084       .  S
Fe1690     O1701   2.041       .  S
Fe1690     O1706   2.100       .  S
Fe1690     O1700   1.929       .  S
Fe1691     O1709   2.097       .  S
Fe1691     O1696   2.048       .  S
Fe1691     O1703   2.043       .  S
Fe1691     O1692   2.082       .  S
Fe1691     O1700   1.942       .  S
O1692      C1699   1.270       .  A
O1693      C1707   1.266       .  A
O1694      C1699   1.267       .  A
O1695      C1698   1.281       .  A
O1696      C1708   1.269       .  A
O1697      C1710   1.274       .  A
C1698      O1703   1.271       .  A
C1698      C2161   1.487       .  S
C1699      C1821   1.470       .  S
O1701      C1704   1.269       .  A
O1702      C1704   1.277       .  A
C1704      C1871   1.488       .  S
O1705      C1710   1.270       .  A
O1706      C1708   1.278       .  A
C1707      O1709   1.272       .  A
C1707      C1848   1.476       .  S
C1708      C1838   1.478       .  S
C1710      C1828   1.473       .  S
Fe1711     O1727   2.061       .  S
Fe1711     O1717   2.113       .  S
Fe1711     O1724   2.105       .  S
Fe1711     O1716   2.061       .  S
Fe1711     O1722   1.941       .  S
Fe1712     O1715   2.049       .  S
Fe1712     O1719   2.085       .  S
Fe1712     O1723   2.033       .  S
Fe1712     O1728   2.105       .  S
Fe1712     O1722   1.928       .  S
Fe1713     O1731   2.092       .  S
Fe1713     O1725   2.041       .  S
Fe1713     O1722   1.938       .  S
O1714      C1721   1.269       .  A
O1715      C1729   1.264       .  A
O1717      C1720   1.281       .  A
O1719      C1732   1.274       .  A
C1720      O1725   1.271       .  A
C1720      C2121   1.486       .  S
C1721      C1831   1.470       .  S
O1723      C1726   1.267       .  A
O1724      C1726   1.276       .  A
C1726      C1861   1.484       .  S
O1727      C1732   1.271       .  A
O1728      C1730   1.279       .  A
C1729      O1731   1.271       .  A
C1729      C1808   1.474       .  S
C1732      C1818   1.474       .  S
Fe1733     O1749   2.057       .  S
Fe1733     O1739   2.104       .  S
Fe1733     O1746   2.107       .  S
Fe1733     O1738   2.056       .  S
Fe1733     O1744   1.944       .  S
Fe1734     O1737   2.051       .  S
Fe1734     O1741   2.082       .  S
Fe1734     O1745   2.042       .  S
Fe1734     O1750   2.097       .  S
Fe1734     O1744   1.936       .  S
Fe1735     O1753   2.100       .  S
Fe1735     O1740   2.056       .  S
Fe1735     O1747   2.053       .  S
Fe1735     O1736   2.085       .  S
Fe1735     O1744   1.947       .  S
O1736      C1743   1.271       .  A
O1737      C1751   1.266       .  A
O1738      C1743   1.267       .  A
O1739      C1742   1.279       .  A
O1740      C1752   1.270       .  A
O1741      C1754   1.272       .  A
C1742      O1747   1.272       .  A
C1742      C2281   1.488       .  S
O1745      C1748   1.269       .  A
O1746      C1748   1.276       .  A
C1748      C1931   1.490       .  S
O1749      C1754   1.269       .  A
O1750      C1752   1.276       .  A
C1751      O1753   1.274       .  A
C1751      C1851   1.478       .  S
C1752      C1801   1.476       .  S
C1754      C1788   1.467       .  S
Fe1755     O1771   2.062       .  S
Fe1755     O1761   2.109       .  S
Fe1755     O1768   2.106       .  S
Fe1755     O1760   2.064       .  S
Fe1755     O1766   1.941       .  S
Fe1756     O1759   2.053       .  S
Fe1756     O1763   2.084       .  S
Fe1756     O1767   2.040       .  S
Fe1756     O1772   2.098       .  S
Fe1756     O1766   1.930       .  S
Fe1757     O1775   2.090       .  S
Fe1757     O1762   2.051       .  S
Fe1757     O1769   2.046       .  S
Fe1757     O1758   2.075       .  S
Fe1757     O1766   1.938       .  S
O1758      C1765   1.269       .  A
O1759      C1773   1.266       .  A
O1760      C1765   1.268       .  A
O1761      C1764   1.280       .  A
O1762      C1774   1.270       .  A
O1763      C1776   1.274       .  A
C1764      O1769   1.272       .  A
C1764      C2258   1.486       .  S
C1765      C1791   1.472       .  S
O1767      C1770   1.268       .  A
O1768      C1770   1.276       .  A
C1770      C1901   1.485       .  S
O1771      C1776   1.270       .  A
O1772      C1774   1.277       .  A
C1773      O1775   1.272       .  A
C1773      C1811   1.474       .  S
C1774      C1841   1.474       .  S
C1776      C1781   1.474       .  S
C1777      C1778   1.403   1_556  A
C1777      C1782   1.397       .  A
C1777      H1783   1.084   1_556  S
C1778      C1779   1.403   1_554  A
C1779      C1780   1.400       .  A
C1779      H1784   1.083       .  S
C1780      C1781   1.405       .  A
C1780      H1785   1.083       .  S
C1781      C1782   1.403       .  A
C1782      H1786   1.083       .  S
C1787      C1788   1.401       .  A
C1787      C1792   1.395       .  A
C1787      H1793   1.084       .  S
C1788      C1789   1.403       .  A
C1789      C1790   1.400       .  A
C1789      H1794   1.083       .  S
C1790      C1791   1.405       .  A
C1790      H1795   1.083       .  S
C1791      C1792   1.404       .  A
C1792      H1796   1.083       .  S
C1797      C1798   1.406       .  A
C1797      C1802   1.397       .  A
C1797      H1803   1.084       .  S
C1799      H1804   1.083       .  S
C1800      C1801   1.405       .  A
C1801      C1802   1.403       .  A
C1802      H1806   1.083       .  S
C1807      C1808   1.403       .  A
C1807      C1812   1.398       .  A
C1807      H1813   1.083       .  S
C1808      C1809   1.406       .  A
C1809      C1810   1.398       .  A
C1809      H1814   1.084       .  S
C1810      C1811   1.403       .  A
C1810      H1815   1.083       .  S
C1811      C1812   1.406       .  A
C1812      H1816   1.084       .  S
C1817      C1818   1.405       .  A
C1817      C1822   1.399       .  A
C1817      H1823   1.084       .  S
C1818      C1819   1.404       .  A
C1819      C1820   1.399       .  A
C1819      H1824   1.083       .  S
C1820      C1821   1.404       .  A
C1820      H1825   1.084       .  S
C1821      C1822   1.403       .  A
C1822      H1826   1.083       .  S
C1827      C1828   1.404       .  A
C1827      C1832   1.399       .  A
C1827      H1833   1.084       .  S
C1828      C1829   1.404       .  A
C1829      C1830   1.398       .  A
C1829      H1834   1.083       .  S
C1830      C1831   1.403       .  A
C1830      H1835   1.084       .  S
C1831      C1832   1.403       .  A
C1832      H1836   1.083       .  S
C1837      C1838   1.405       .  A
C1837      C1842   1.398       .  A
C1837      H1843   1.084       .  S
C1838      C1839   1.406       .  A
C1839      C1840   1.398       .  A
C1839      H1844   1.083       .  S
C1840      C1841   1.404       .  A
C1840      H1845   1.084       .  S
C1841      C1842   1.404       .  A
C1842      H1846   1.083       .  S
C1847      C1848   1.404       .  A
C1847      C1852   1.400       .  A
C1847      H1853   1.083       .  S
C1848      C1849   1.405       .  A
C1849      C1850   1.399       .  A
C1849      H1854   1.084       .  S
C1850      C1851   1.405       .  A
C1850      H1855   1.083       .  S
C1851      C1852   1.406       .  A
C1852      H1856   1.084       .  S
C1857      C1858   1.408       .  A
C1857      C1862   1.409   1_455  A
C1857      H1863   1.083       .  S
C1858      C1859   1.404       .  A
C1859      C1860   1.386   1_455  A
C1859      H1864   1.083       .  S
C1860      C1861   1.404       .  A
C1860      H1865   1.083       .  S
C1861      C1862   1.409       .  A
C1862      H1866   1.082       .  S
C1867      C1868   1.409       .  A
C1867      C1872   1.411   1_455  A
C1867      H1873   1.083       .  S
C1868      C1869   1.406       .  A
C1869      C1870   1.389   1_455  A
C1869      H1874   1.083       .  S
C1870      C1871   1.404       .  A
C1870      H1875   1.083       .  S
C1871      C1872   1.410       .  A
C1872      H1876   1.083       .  S
C1877      C1878   1.404       .  A
C1877      C1882   1.399       .  A
C1877      H1883   1.084       .  S
C1878      C1879   1.403       .  A
C1879      C1880   1.398       .  A
C1879      H1884   1.083       .  S
C1880      C1881   1.404       .  A
C1880      H1885   1.084       .  S
C1881      C1882   1.404       .  A
C1882      H1886   1.083       .  S
C1887      C1888   1.405       .  A
C1887      C1892   1.397       .  A
C1887      H1893   1.083       .  S
C1888      C1889   1.405       .  A
C1889      C1890   1.398       .  A
C1889      H1894   1.083       .  S
C1890      C1891   1.401       .  A
C1890      H1895   1.083       .  S
C1891      C1892   1.402       .  A
C1892      H1896   1.084       .  S
C1897      C1898   1.409       .  A
C1897      C1902   1.409   1_455  A
C1897      H1903   1.083       .  S
C1898      C1899   1.405       .  A
C1899      C1900   1.389   1_455  A
C1899      H1904   1.083       .  S
C1900      C1901   1.404       .  A
C1900      H1905   1.083       .  S
C1901      C1902   1.409       .  A
C1902      H1906   1.083       .  S
C1907      C1908   1.405       .  A
C1907      C1912   1.400       .  A
C1907      H1913   1.084       .  S
C1908      C1909   1.405       .  A
C1909      C1910   1.400       .  A
C1909      H1914   1.082       .  S
C1910      C1911   1.405       .  A
C1910      H1915   1.084       .  S
C1911      C1912   1.405       .  A
C1912      H1916   1.083       .  S
C1917      C1918   1.406       .  A
C1917      C1922   1.396       .  A
C1917      H1923   1.083       .  S
C1918      C1919   1.405       .  A
C1919      C1920   1.398       .  A
C1919      H1924   1.083       .  S
C1920      C1921   1.405       .  A
C1920      H1925   1.083       .  S
C1921      C1922   1.403       .  A
C1922      H1926   1.083       .  S
C1927      C1928   1.406       .  A
C1927      C1932   1.388   1_455  A
C1927      H1933   1.083       .  S
C1928      C1929   1.409       .  A
C1929      C1930   1.411   1_455  A
C1929      H1934   1.083       .  S
C1930      C1931   1.411       .  A
C1930      H1935   1.083       .  S
C1931      C1932   1.404       .  A
C1932      H1936   1.083       .  S
C1937      C1938   1.406       .  A
C1937      C1942   1.401       .  A
C1937      H1943   1.084       .  S
C1938      C1939   1.405       .  A
C1940      H1945   1.084       .  S
C1941      C1942   1.406       .  A
C1942      H1946   1.083       .  S
C1947      C1948   1.404       .  A
C1947      C1952   1.396       .  A
C1947      H1953   1.083       .  S
C1948      C1949   1.405       .  A
C1949      C1950   1.397       .  A
C1949      H1954   1.084       .  S
C1950      C1951   1.405       .  A
C1950      H1955   1.083       .  S
C1951      C1952   1.404       .  A
C1952      H1956   1.083       .  S
C1957      C1958   1.404       .  A
C1957      C1962   1.396       .  A
C1957      H1963   1.083       .  S
C1958      C1959   1.405       .  A
C1959      C1960   1.400       .  A
C1959      H1964   1.083       .  S
C1960      C1961   1.403       .  A
C1960      H1965   1.083       .  S
C1961      C1962   1.402       .  A
C1962      H1966   1.084       .  S
C1967      C1968   1.404       .  A
C1967      C1972   1.398       .  A
C1967      H1973   1.083       .  S
C1968      C1969   1.403       .  A
C1969      C1970   1.397       .  A
C1969      H1974   1.084       .  S
C1970      C1971   1.402       .  A
C1970      H1975   1.083       .  S
C1971      C1972   1.403       .  A
C1972      H1976   1.084       .  S
C1977      C1978   1.408       .  A
C1977      C1982   1.405       .  A
C1977      H1983   1.083       .  S
C1978      C1979   1.406       .  A
C1979      C1980   1.393       .  A
C1979      H1984   1.083       .  S
C1980      C1981   1.405       .  A
C1980      H1985   1.083       .  S
C1981      C1982   1.408       .  A
C1982      H1986   1.083       .  S
C1987      C1988   1.408       .  A
C1987      C1992   1.404       .  A
C1987      H1993   1.083       .  S
C1988      C1989   1.405       .  A
C1989      C1990   1.394       .  A
C1989      H1994   1.083       .  S
C1990      C1991   1.406       .  A
C1990      H1995   1.083       .  S
C1991      C1992   1.407       .  A
C1992      H1996   1.083       .  S
C1997      C1998   1.403       .  A
C1997      C2002   1.398       .  A
C1997      H2003   1.084       .  S
C1998      C1999   1.402       .  A
C1999      C2000   1.399       .  A
C1999      H2004   1.083       .  S
C2000      C2001   1.405       .  A
C2000      H2005   1.084       .  S
C2001      C2002   1.405       .  A
C2002      H2006   1.083       .  S
C2007      C2008   1.402       .  A
C2007      C2012   1.399       .  A
C2007      H2013   1.083       .  S
C2008      C2009   1.403       .  A
C2009      C2010   1.398       .  A
C2009      H2014   1.084       .  S
C2010      C2011   1.405       .  A
C2010      H2015   1.083       .  S
C2011      C2012   1.405       .  A
C2012      H2016   1.084       .  S
C2017      C2018   1.405       .  A
C2018      C2019   1.405       .  A
C2019      C2020   1.398       .  A
C2019      H2024   1.083       .  S
C2020      C2021   1.405       .  A
C2020      H2025   1.083       .  S
C2022      H2026   1.083       .  S
C2027      C2028   1.405       .  A
C2027      C2032   1.399       .  A
C2027      H2033   1.084       .  S
C2028      C2029   1.405       .  A
C2029      C2030   1.399       .  A
C2029      H2034   1.083       .  S
C2030      C2031   1.405       .  A
C2030      H2035   1.085       .  S
C2031      C2032   1.404       .  A
C2032      H2036   1.083       .  S
C2037      C2038   1.404       .  A
C2037      C2042   1.399       .  A
C2037      H2043   1.084       .  S
C2038      C2039   1.404       .  A
C2039      C2040   1.397       .  A
C2039      H2044   1.083       .  S
C2040      C2041   1.402       .  A
C2040      H2045   1.084       .  S
C2041      C2042   1.403       .  A
C2042      H2046   1.083       .  S
C2047      C2048   1.404       .  A
C2047      C2052   1.399       .  A
C2047      H2053   1.084       .  S
C2048      C2049   1.404       .  A
C2049      C2050   1.396       .  A
C2049      H2054   1.083       .  S
C2050      C2051   1.402       .  A
C2050      H2055   1.084       .  S
C2051      C2052   1.403       .  A
C2052      H2056   1.083       .  S
C2057      C2058   1.403       .  A
C2057      C2062   1.397       .  A
C2057      H2063   1.084       .  S
C2058      C2059   1.406       .  A
C2059      C2060   1.398       .  A
C2059      H2064   1.083       .  S
C2060      C2061   1.404       .  A
C2060      H2065   1.083       .  S
C2061      C2062   1.406       .  A
C2062      H2066   1.083       .  S
C2067      C2068   1.404       .  A
C2067      C2072   1.399       .  A
C2067      H2073   1.083       .  S
C2068      C2069   1.405       .  A
C2069      C2070   1.399       .  A
C2069      H2074   1.084       .  S
C2070      C2071   1.405       .  A
C2070      H2075   1.083       .  S
C2071      C2072   1.406       .  A
C2072      H2076   1.084       .  S
C2077      C2078   1.405       .  A
C2077      C2082   1.391       .  A
C2077      H2083   1.083       .  S
C2078      C2079   1.409       .  A
C2079      C2080   1.411       .  A
C2079      H2084   1.083       .  S
C2080      C2081   1.409       .  A
C2080      H2085   1.083       .  S
C2081      C2082   1.406       .  A
C2082      H2086   1.083       .  S
C2087      C2088   1.409       .  A
C2087      C2092   1.411       .  A
C2087      H2093   1.083       .  S
C2088      C2089   1.406       .  A
C2089      C2090   1.389       .  A
C2089      H2094   1.083       .  S
C2090      C2091   1.404       .  A
C2090      H2095   1.083       .  S
C2091      C2092   1.409       .  A
C2092      H2096   1.083       .  S
C2097      C2098   1.404       .  A
C2097      C2102   1.399       .  A
C2097      H2103   1.083       .  S
C2098      C2099   1.404       .  A
C2099      C2100   1.397       .  A
C2099      H2104   1.084       .  S
C2100      C2101   1.403       .  A
C2100      H2105   1.083       .  S
C2101      C2102   1.404       .  A
C2102      H2106   1.083       .  S
C2107      C2108   1.403       .  A
C2107      C2112   1.397       .  A
C2107      H2113   1.084       .  S
C2108      C2109   1.403       .  A
C2109      C2110   1.401       .  A
C2109      H2114   1.083       .  S
C2110      C2111   1.406       .  A
C2110      H2115   1.084       .  S
C2111      C2112   1.404       .  A
C2112      H2116   1.083       .  S
C2117      C2118   1.405       .  A
C2117      C2122   1.392       .  A
C2117      H2123   1.083       .  S
C2118      C2119   1.409       .  A
C2119      C2120   1.405       .  A
C2119      H2124   1.082       .  S
C2120      C2121   1.408       .  A
C2120      H2125   1.083       .  S
C2121      C2122   1.406       .  A
C2122      H2126   1.083       .  S
C2127      C2128   1.410       .  A
C2127      C2132   1.410       .  A
C2127      H2133   1.083       .  S
C2128      C2129   1.405       .  A
C2129      C2130   1.386       .  A
C2129      H2134   1.083       .  S
C2130      C2131   1.404       .  A
C2130      H2135   1.083       .  S
C2131      C2132   1.409       .  A
C2132      H2136   1.083       .  S
C2137      C2138   1.405       .  A
C2138      C2139   1.405       .  A
C2139      C2140   1.400       .  A
C2139      H2144   1.084       .  S
C2140      C2141   1.406       .  A
C2140      H2145   1.083       .  S
C2142      H2146   1.084       .  S
C2147      C2148   1.405       .  A
C2147      C2152   1.398       .  A
C2147      H2153   1.083       .  S
C2148      C2149   1.404       .  A
C2149      C2150   1.398       .  A
C2149      H2154   1.083       .  S
C2150      C2151   1.406       .  A
C2150      H2155   1.083       .  S
C2151      C2152   1.405       .  A
C2152      H2156   1.083       .  S
C2157      C2158   1.405       .  A
C2157      C2162   1.394       .  A
C2157      H2163   1.083       .  S
C2158      C2159   1.408       .  A
C2159      C2160   1.404       .  A
C2159      H2164   1.083       .  S
C2160      C2161   1.407       .  A
C2160      H2165   1.083       .  S
C2161      C2162   1.406       .  A
C2162      H2166   1.083       .  S
C2167      C2168   1.407       .  A
C2167      C2172   1.407       .  A
C2167      H2173   1.083       .  S
C2168      C2169   1.404       .  A
C2169      C2170   1.389       .  A
C2169      H2174   1.083       .  S
C2170      C2171   1.404       .  A
C2170      H2175   1.084       .  S
C2171      C2172   1.408       .  A
C2172      H2176   1.083       .  S
C2177      C2178   1.406       .  A
C2177      C2182   1.399       .  A
C2177      H2183   1.084       .  S
C2178      C2179   1.404       .  A
C2179      C2180   1.399       .  A
C2179      H2184   1.083       .  S
C2180      C2181   1.406       .  A
C2180      H2185   1.084       .  S
C2181      C2182   1.404       .  A
C2182      H2186   1.083       .  S
C2187      C2188   1.404       .  A
C2187      C2192   1.397       .  A
C2187      H2193   1.083       .  S
C2188      C2189   1.405       .  A
C2189      C2190   1.400       .  A
C2189      H2194   1.084       .  S
C2190      C2191   1.403       .  A
C2190      H2195   1.083       .  S
C2191      C2192   1.403       .  A
C2192      H2196   1.084       .  S
C2197      C2198   1.404       .  A
C2197      C2202   1.398       .  A
C2197      H2203   1.083       .  S
C2198      C2199   1.405       .  A
C2199      C2200   1.399       .  A
C2199      H2204   1.084       .  S
C2200      C2201   1.403       .  A
C2200      H2205   1.083       .  S
C2201      C2202   1.403       .  A
C2202      H2206   1.084       .  S
C2207      C2208   1.404       .  A
C2207      C2212   1.396       .  A
C2207      H2213   1.083       .  S
C2208      C2209   1.403       .  A
C2209      C2210   1.397       .  A
C2209      H2214   1.084       .  S
C2210      C2211   1.405       .  A
C2210      H2215   1.083       .  S
C2211      C2212   1.406       .  A
C2212      H2216   1.084       .  S
C2217      C2218   1.407       .  A
C2217      C2222   1.402       .  A
C2217      H2223   1.083       .  S
C2218      C2219   1.406       .  A
C2219      C2220   1.395       .  A
C2219      H2224   1.083       .  S
C2220      C2221   1.406       .  A
C2220      H2225   1.083       .  S
C2221      C2222   1.407       .  A
C2222      H2226   1.083       .  S
C2227      C2228   1.406       .  A
C2227      C2232   1.395       .  A
C2227      H2233   1.083       .  S
C2228      C2229   1.407       .  A
C2229      C2230   1.403       .  A
C2229      H2234   1.083       .  S
C2230      C2231   1.407       .  A
C2230      H2235   1.082       .  S
C2231      C2232   1.406       .  A
C2232      H2236   1.083       .  S
C2237      C2238   1.403       .  A
C2237      C2242   1.397       .  A
C2237      H2243   1.083       .  S
C2238      C2239   1.404       .  A
C2239      C2240   1.400       .  A
C2239      H2244   1.083       .  S
C2240      C2241   1.403       .  A
C2240      H2245   1.083       .  S
C2241      C2242   1.403       .  A
C2242      H2246   1.083       .  S
C2247      C2248   1.403   1_554  A
C2247      H2253   1.083   1_554  S
C2248      C2249   1.404       .  A
C2249      H2254   1.084       .  S
C2250      C2251   1.404       .  A
C2250      H2255   1.083       .  S
C2251      C2252   1.405       .  A
C2252      H2256   1.083       .  S
C2257      C2258   1.406       .  A
C2257      C2262   1.395       .  A
C2257      H2263   1.083       .  S
C2258      C2259   1.407       .  A
C2259      C2260   1.404       .  A
C2259      H2264   1.083       .  S
C2260      C2261   1.408       .  A
C2260      H2265   1.082       .  S
C2261      C2262   1.406       .  A
C2262      H2266   1.083       .  S
C2267      C2268   1.404       .  A
C2267      C2272   1.388   1_545  A
C2267      H2273   1.083       .  S
C2268      C2269   1.409       .  A
C2269      C2270   1.409   1_545  A
C2269      H2274   1.083       .  S
C2270      C2271   1.408       .  A
C2270      H2275   1.083       .  S
C2271      C2272   1.404       .  A
C2272      H2276   1.083       .  S
C2277      C2278   1.406       .  A
C2277      C2282   1.397       .  A
C2277      H2283   1.083       .  S
C2278      C2279   1.407       .  A
C2279      C2280   1.403       .  A
C2279      H2284   1.083       .  S
C2280      C2281   1.408       .  A
C2280      H2285   1.083       .  S
C2281      C2282   1.406       .  A
C2282      H2286   1.083       .  S
C2287      C2288   1.404       .  A
C2287      C2292   1.386   1_565  A
C2287      H2293   1.083       .  S
C2288      C2289   1.409       .  A
C2289      C2290   1.410   1_565  A
C2289      H2294   1.083       .  S
C2290      C2291   1.409       .  A
C2290      H2295   1.083       .  S
C2291      C2292   1.403       .  A
C2292      H2296   1.083       .  S
C2297      C2298   1.402       .  A
C2297      H2303   1.083       .  S
C2298      C2299   1.403       .  A
C2299      H2304   1.084       .  S
C2300      C2301   1.405       .  A
C2300      H2305   1.083       .  S
C2301      C2302   1.405       .  A
C2302      H2306   1.083       .  S
C2307      C2308   1.403       .  A
C2307      C2312   1.398       .  A
C2307      H2313   1.084       .  S
C2308      C2309   1.403       .  A
C2309      C2310   1.398       .  A
C2309      H2314   1.083       .  S
C2310      C2311   1.403       .  A
C2310      H2315   1.083       .  S
C2311      C2312   1.404       .  A
C2312      H2316   1.083       .  S
C2317      C2318   1.409       .  A
C2317      C2322   1.405       .  A
C2317      H2323   1.083       .  S
C2318      C2319   1.404       .  A
C2319      C2320   1.393       .  A
C2319      H2324   1.083       .  S
C2320      C2321   1.406       .  A
C2320      H2325   1.083       .  S
C2321      C2322   1.407       .  A
C2322      H2326   1.083       .  S
C2327      C2328   1.407       .  A
C2327      C2332   1.400       .  A
C2327      H2333   1.083       .  S
C2328      C2329   1.408       .  A
C2329      C2330   1.399       .  A
C2329      H2334   1.083       .  S
C2330      C2331   1.404       .  A
C2330      H2335   1.084       .  S
C2331      C2332   1.403       .  A
C2332      H2336   1.083       .  S
C2337      C2338   1.405       .  A
C2337      C2342   1.400       .  A
C2337      H2343   1.085       .  S
C2338      C2339   1.404       .  A
C2339      C2340   1.399       .  A
C2339      H2344   1.082       .  S
C2340      C2341   1.406       .  A
C2340      H2345   1.084       .  S
C2341      C2342   1.405       .  A
C2342      H2346   1.082       .  S
C2347      C2348   1.407       .  A
C2347      C2352   1.395       .  A
C2347      H2353   1.083       .  S
C2349      H2354   1.082       .  S
C2350      C2351   1.408       .  A
C2351      C2352   1.406       .  A
C2352      H2356   1.083       .  S
C2357      C2358   1.406       .  A
C2357      C2362   1.401       .  A
C2357      H2363   1.083       .  S
C2358      C2359   1.407       .  A
C2359      C2360   1.397       .  A
C2359      H2364   1.084       .  S
C2360      C2361   1.403       .  A
C2360      H2365   1.083       .  S
C2361      C2362   1.405       .  A
C2362      H2366   1.083       .  S
C2367      C2368   1.405       .  A
C2367      C2372   1.397       .  A
C2367      H2373   1.085       .  S
C2368      C2369   1.403       .  A
C2369      C2370   1.398       .  A
C2369      H2374   1.082       .  S
C2370      C2371   1.406       .  A
C2370      H2375   1.085       .  S
C2371      C2372   1.404       .  A
C2372      H2376   1.082       .  S
C2377      C2378   1.403       .  A
C2377      C2382   1.400       .  A
C2377      H2383   1.083       .  S
C2378      C2379   1.402       .  A
C2379      C2380   1.397       .  A
C2379      H2384   1.084       .  S
C2380      C2381   1.404       .  A
C2380      H2385   1.083       .  S
C2381      C2382   1.405       .  A
C2382      H2386   1.083       .  S
C2387      C2388   1.404       .  A
C2387      C2392   1.399       .  A
C2387      H2393   1.084       .  S
C2388      C2389   1.403       .  A
C2389      C2390   1.398       .  A
C2389      H2394   1.083       .  S
C2390      C2391   1.403       .  A
C2390      H2395   1.084       .  S
C2391      C2392   1.404       .  A
C2392      H2396   1.083       .  S
C2397      C2398   1.407       .  A
C2397      C2402   1.394       .  A
C2397      H2403   1.083       .  S
C2398      C2399   1.407       .  A
C2399      C2400   1.403       .  A
C2400      C2401   1.408       .  A
C2400      H2405   1.083       .  S
C2401      C2402   1.405       .  A
C2402      H2406   1.083       .  S
C2407      C2412   1.389   1_565  A
C2407      H2413   1.083       .  S
C2408      C2409   1.409       .  A
C2409      C2410   1.410   1_565  A
C2409      H2414   1.083       .  S
C2410      C2411   1.409       .  A
C2410      H2415   1.082       .  S
C2412      H2416   1.083       .  S
C2417      C2418   1.406       .  A
C2417      C2422   1.399       .  A
C2417      H2423   1.083       .  S
C2418      C2419   1.405       .  A
C2419      C2420   1.400       .  A
C2419      H2424   1.083       .  S
C2420      C2421   1.406       .  A
C2420      H2425   1.083       .  S
C2421      C2422   1.405       .  A
C2422      H2426   1.083       .  S
C2427      C2428   1.404       .  A
C2427      C2432   1.400       .  A
C2427      H2433   1.082       .  S
C2428      C2429   1.405       .  A
C2429      C2430   1.398       .  A
C2429      H2434   1.085       .  S
C2430      C2431   1.405       .  A
C2430      H2435   1.082       .  S
C2431      C2432   1.406       .  A
C2432      H2436   1.085       .  S
C2437      C2438   1.406       .  A
C2437      C2442   1.396       .  A
C2437      H2443   1.083       .  S
C2438      C2439   1.408       .  A
C2439      C2440   1.404       .  A
C2439      H2444   1.083       .  S
C2440      C2441   1.408       .  A
C2440      H2445   1.083       .  S
C2441      C2442   1.406       .  A
C2442      H2446   1.083       .  S
C2447      C2448   1.408       .  A
C2447      C2452   1.410   1_565  A
C2447      H2453   1.083       .  S
C2448      C2449   1.404       .  A
C2449      C2450   1.389   1_565  A
C2449      H2454   1.083       .  S
C2450      C2451   1.404       .  A
C2450      H2455   1.083       .  S
C2451      C2452   1.409       .  A
C2452      H2456   1.083       .  S
C2457      C2458   1.405       .  A
C2457      C2462   1.399       .  A
C2457      H2463   1.084       .  S
C2458      C2459   1.404       .  A
C2459      C2460   1.398       .  A
C2459      H2464   1.084       .  S
C2460      C2461   1.406       .  A
C2460      H2465   1.083       .  S
C2461      C2462   1.405       .  A
C2462      H2466   1.083       .  S
C2467      C2468   1.403       .  A
C2467      C2472   1.399       .  A
C2467      H2473   1.083       .  S
C2468      C2469   1.404       .  A
C2469      C2470   1.397       .  A
C2469      H2474   1.084       .  S
C2470      C2471   1.403       .  A
C2470      H2475   1.083       .  S
C2471      C2472   1.405       .  A
C2472      H2476   1.084       .  S
C2477      C2478   1.403       .  A
C2477      C2482   1.398       .  A
C2477      H2483   1.083       .  S
C2478      C2479   1.404       .  A
C2479      C2480   1.398       .  A
C2479      H2484   1.083       .  S
C2480      C2481   1.403       .  A
C2480      H2485   1.084       .  S
C2481      C2482   1.403       .  A
C2482      H2486   1.084       .  S
C2487      C2488   1.406       .  A
C2487      C2492   1.399       .  A
C2487      H2493   1.084       .  S
C2488      C2489   1.405       .  A
C2489      C2490   1.399       .  A
C2489      H2494   1.082       .  S
C2490      C2491   1.405       .  A
C2490      H2495   1.085       .  S
C2491      C2492   1.404       .  A
C2492      H2496   1.083       .  S
