geometry optimzed in LAMMPS
_audit_creation_date              2020-11-30 
_audit_creation_method            'lammps2cif' 
_symmetry_space_group_name_H-M    'P1' 
_symmetry_Int_Tables_number       1 
_symmetry_cell_setting            triclinic 
loop_ 
_symmetry_equiv_pos_as_xyz 
  x,y,z 
_cell_length_a                    39.195280311212386 
_cell_length_b                    39.19293389931959 
_cell_length_c                    37.516547371137456 
_cell_angle_alpha                 89.99963444878124 
_cell_angle_beta                  89.99957646402864 
_cell_angle_gamma                 119.99855309691631 
loop_ 
_atom_site_label 
_atom_site_type_symbol 
_atom_site_fract_x 
_atom_site_fract_y 
_atom_site_fract_z 
_atom_site_charge 
O1          O  0.22676292  0.18491027  0.88669443    -0.86790
O2          O  0.21750154  0.14056451  0.82647883    -0.83840
C3          C  0.18107544  0.12105895  0.82329507     0.96670
O4          O  0.16145268  0.13944038  0.82014251    -0.83870
O5          O  0.15066007  0.21427278  0.81697970    -0.86510
C6          C  0.15813698  0.24087032  0.84081229     1.01200
O7          O  0.18180562  0.24561905  0.86518660    -0.79280
O8          O  0.24677580  0.24732843  0.89736765    -0.79460
C9          C  0.23992122  0.21339253  0.90808425     1.01150
O10         O  0.29677217  0.24501807  0.85626049    -0.86790
O11         O  0.27659071  0.20576825  0.79255924    -0.83850
C12         C  0.25593232  0.19186059  0.76480090     0.96690
O13         O  0.21882916  0.17811129  0.76525247    -0.83880
O14         O  0.20932526  0.24101328  0.76551174    -0.86480
C15         C  0.22093993  0.27651690  0.77261398     1.01160
O16         O  0.22651990  0.28896078  0.80444712    -0.79300
O17         O  0.28686695  0.28889358  0.83129406    -0.79450
C18         C  0.30853038  0.27548952  0.83822841     1.01130
Cr19       Cr  0.25206232  0.19587948  0.83997008     1.93740
Cr20       Cr  0.18653573  0.19408041  0.79558931     1.93210
Cr21       Cr  0.23434044  0.26369181  0.84873795     1.39100
O22         O  0.22345708  0.21767213  0.82797215    -1.24540
O23         O  0.29748059  0.18495993  0.60964658    -0.86790
O24         O  0.26241411  0.14060388  0.66986401    -0.83840
C25         C  0.94599410  0.12109149  0.67306711     0.96670
O26         O  0.98399630  0.13946146  0.67621208    -0.83870
O27         O  0.06962275  0.21428828  0.67937767    -0.86510
C28         C  0.08874541  0.24089047  0.65554907     1.01200
O29         O  0.06982697  0.24563999  0.63117168    -0.79280
O30         O  0.00656708  0.24737590  0.59898621    -0.79460
C31         C  0.97947048  0.21345045  0.58826429     1.01150
O32         O  0.28760000  0.24506640  0.64010384    -0.86790
O33         O  0.26852829  0.20579826  0.70380040    -0.83850
C34         C  0.27526808  0.19187126  0.73155278     0.96690
O35         O  0.96528994  0.17812265  0.73109697    -0.83880
O36         O  0.03768675  0.24101666  0.73084462    -0.86480
C37         C  0.06158235  0.27651721  0.72374813     1.01160
O38         O  0.06845190  0.28897012  0.69191742    -0.79300
O39         O  0.00804776  0.28892969  0.66507163    -0.79450
C40         C  0.30631632  0.27553523  0.65813619     1.01130
Cr41       Cr  0.28316527  0.19592001  0.65638253     1.93740
Cr42       Cr  0.01355216  0.19409579  0.70076229     1.93210
Cr43       Cr  0.03536644  0.26371953  0.64762104     1.39100
O44         O  0.00022721  0.21769730  0.66837925    -1.24540
O45         O  0.19681814  0.28561706  0.72004628    -0.86790
O46         O  0.15246421  0.25054947  0.65982887    -0.83840
C47         C  0.13295384  0.26746557  0.65662735     0.96670
O48         O  0.15132641  0.97213703  0.65348147    -0.83870
O49         O  0.22614785  0.05776452  0.65032175    -0.86510
C50         C  0.25275023  0.07688414  0.67414829     1.01200
O51         O  0.25749543  0.05796312  0.69852637    -0.79280
O52         O  0.25923060  0.99470125  0.73070904    -0.79460
C53         C  0.22530534  0.96760522  0.74142958     1.01150
O54         O  0.25692333  0.27573408  0.68958964    -0.86790
O55         O  0.21766145  0.25666876  0.62589441    -0.83850
C56         C  0.20374171  0.26341557  0.59814169     0.96690
O57         O  0.18999222  0.28677020  0.59859763    -0.83880
O58         O  0.25288516  0.02584062  0.59885154    -0.86480
C59         C  0.28838461  0.04973486  0.60594986     1.01160
O60         O  0.96749999  0.05659810  0.63778167    -0.79300
O61         O  0.30078793  0.99618842  0.66462670    -0.79450
C62         C  0.28739432  0.29445486  0.67156131     1.01130
Cr63       Cr  0.20777974  0.27130201  0.67331107     1.93740
Cr64       Cr  0.20596144  0.00169717  0.62893317     1.93210
Cr65       Cr  0.27557771  0.02350604  0.68207628     1.39100
O66         O  0.22955926  0.98836759  0.66131539    -1.24540
O67         O  0.19679374  0.21493238  0.44300207    -0.86790
O68         O  0.15244872  0.20567163  0.50321624    -0.83840
C69         C  0.13293945  0.16924315  0.50639708     0.96670
O70         O  0.15131643  0.14961484  0.50954458    -0.83870
O71         O  0.22614284  0.13881306  0.51270275    -0.86510
C72         C  0.25274834  0.14630071  0.48887716     1.01200
O73         O  0.25749672  0.16997060  0.46450296    -0.79280
O74         O  0.25920832  0.23494617  0.43232757    -0.79460
C75         C  0.22527450  0.22809240  0.42161232     1.01150
O76         O  0.25690079  0.28494208  0.47343703    -0.86790
O77         O  0.21765088  0.26475280  0.53713846    -0.83850
C78         C  0.20373842  0.24408719  0.56489329     0.96690
O79         O  0.18998826  0.20698201  0.56443796    -0.83880
O80         O  0.25288238  0.19746879  0.56417878    -0.86480
C81         C  0.28838584  0.20908902  0.55707873     1.01160
O82         O  0.96750038  0.21467963  0.52524655    -0.79300
O83         O  0.30077049  0.27503126  0.49840270    -0.79450
C84         C  0.28737034  0.29669806  0.49146795     1.01130
Cr85       Cr  0.20776287  0.24023003  0.48972628     1.93740
Cr86       Cr  0.20595413  0.17468942  0.53409825     1.93210
Cr87       Cr  0.27556904  0.22250506  0.48095568     1.39100
O88         O  0.22955082  0.21161946  0.50172105    -1.24540
O89         O  0.29746843  0.08295382  0.55337940    -0.86790
O90         O  0.26239809  0.09223929  0.49316550    -0.83840
C91         C  0.94598536  0.12866406  0.48994892     0.96670
O92         O  0.98398652  0.14828867  0.48678435    -0.83870
O93         O  0.06960799  0.15905942  0.48360426    -0.86510
C94         C  0.08872741  0.15160285  0.50745534     1.01200
O95         O  0.06980281  0.12794779  0.53183923    -0.79280
O96         O  0.00655410  0.06295816  0.56403740    -0.79460
C97         C  0.97946256  0.06979105  0.57476179     1.01150
O98         O  0.28757135  0.01295657  0.52292716    -0.86790
O99         O  0.26847721  0.03313387  0.45923271    -0.83850
C100        C  0.27521189  0.05378726  0.43147149     0.96690
O101        O  0.96524146  0.09089128  0.43191587    -0.83880
O102        O  0.03761922  0.10035380  0.43216698    -0.86480
C103        C  0.06152097  0.08875916  0.43926987     1.01160
O104        O  0.06841916  0.08322139  0.47110434    -0.79300
O105        O  0.00802145  0.02287180  0.49796404    -0.79450
C106        C  0.30628799  0.33453819  0.50489384     1.01130
Cr107      Cr  0.28313690  0.05766640  0.50664688     1.93740
Cr108      Cr  0.01351949  0.12318298  0.46223855     1.93210
Cr109      Cr  0.03534137  0.07540258  0.51540132     1.39100
O110        O  0.00019689  0.08627594  0.49463954    -1.24540
O111        O  0.22668634  0.34551055  0.27632118    -0.86790
O112        O  0.21740519  0.04725724  0.33653190    -0.83840
C113        C  0.18098167  0.36366612  0.33974674     0.96670
O114        O  0.16136214  0.32566346  0.34291547    -0.83870
O115        O  0.15059455  0.24004336  0.34609777    -0.86510
C116        C  0.15804511  0.22092367  0.32224190     1.01200
O117        O  0.18170063  0.23984906  0.29785958    -0.79280
O118        O  0.24668470  0.30309200  0.26566431    -0.79460
C119        C  0.23984492  0.33017899  0.25493878     1.01150
O120        O  0.29668681  0.02208145  0.30677104    -0.86790
O121        O  0.27651417  0.04118164  0.37046240    -0.83850
C122        C  0.25586524  0.03444442  0.39822590     0.96690
O123        O  0.21876283  0.34441597  0.39778339    -0.83880
O124        O  0.20930189  0.27203440  0.39753264    -0.86480
C125        C  0.22089158  0.24812813  0.39042775     1.01160
O126        O  0.22642262  0.24122608  0.35859292    -0.79300
O127        O  0.28677118  0.30162724  0.33173449    -0.79450
C128        C  0.30843802  0.33669591  0.32480368     1.01130
Cr129      Cr  0.25197848  0.02651713  0.32305071     1.93740
Cr130      Cr  0.18647038  0.29613374  0.36746272     1.93210
Cr131      Cr  0.23424274  0.27430702  0.31429844     1.39100
O132        O  0.22337292  0.30945537  0.33506072    -1.24540
O133        O  0.09471170  0.11285811  0.38669236    -0.86790
O134        O  0.10397309  0.15720436  0.32647667    -0.83840
C135        C  0.14039941  0.17670989  0.32329437     0.96670
O136        O  0.16002199  0.15832826  0.32014139    -0.83870
O137        O  0.17081475  0.08349572  0.31697826    -0.86510
C138        C  0.16333741  0.05689799  0.34081129     1.01200
O139        O  0.13966818  0.05214897  0.36518547    -0.79280
O140        O  0.07469822  0.05043977  0.39736649    -0.79460
C141        C  0.08155334  0.08437581  0.40808268     1.01150
O142        O  0.02470249  0.05275055  0.35626000    -0.86790
O143        O  0.04488445  0.09200082  0.29255805    -0.83850
C144        C  0.06554319  0.10590876  0.26479942     0.96690
O145        O  0.10264646  0.11965825  0.26525074    -0.83880
O146        O  0.11215088  0.05675621  0.26551027    -0.86480
C147        C  0.10053559  0.35458564  0.27261278     1.01160
O148        O  0.09495494  0.34214137  0.30444611    -0.79300
O149        O  0.03460780  0.34220866  0.33129350    -0.79450
C150        C  0.01294438  0.35561266  0.33822821     1.01130
Cr151      Cr  0.06941239  0.10188919  0.33996856     1.93740
Cr152      Cr  0.13493963  0.10368874  0.29558773     1.93210
Cr153      Cr  0.08713389  0.03407661  0.34873689     1.39100
O154        O  0.09801760  0.08009649  0.32797061    -1.24660
O155        O  0.02399469  0.11280898  0.10964515    -0.86790
O156        O  0.05906104  0.15716520  0.16986156    -0.83840
C157        C  0.37548110  0.17667753  0.17306569     0.96670
O158        O  0.33747887  0.15830758  0.17621094    -0.83870
O159        O  0.25185226  0.08348007  0.17937732    -0.86510
C160        C  0.23273026  0.05687880  0.15554836     1.01200
O161        O  0.25164947  0.05212960  0.13117134    -0.79280
O162        O  0.31490878  0.05039286  0.09898639    -0.79460
C163        C  0.34200490  0.08431839  0.08826353     1.01150
O164        O  0.03387553  0.05270269  0.14010341    -0.86790
O165        O  0.05294750  0.09197129  0.20379901    -0.83850
C166        C  0.04620751  0.10589811  0.23155134     0.96690
O167        O  0.35618512  0.11964615  0.23109570    -0.83880
O168        O  0.28378874  0.05675223  0.23084453    -0.86480
C169        C  0.25989288  0.35458524  0.22374868     1.01160
O170        O  0.25302302  0.34213257  0.19191822    -0.79300
O171        O  0.31342765  0.34217282  0.16507265    -0.79450
C172        C  0.01515910  0.02223389  0.15813651     1.01130
Cr173      Cr  0.03831025  0.10184918  0.15638109     1.93740
Cr174      Cr  0.30792297  0.10367301  0.20076156     1.93210
Cr175      Cr  0.28610921  0.03404964  0.14762146     1.39100
O176        O  0.32124830  0.08007182  0.16837868    -1.24540
O177        O  0.12465741  0.34548574  0.22004453    -0.86790
O178        O  0.16901119  0.04721997  0.15982599    -0.83840
C179        C  0.18852169  0.36363719  0.15662582     0.96670
O180        O  0.17014915  0.32563243  0.15348027    -0.83870
O181        O  0.09532859  0.24000492  0.15032138    -0.86510
C182        C  0.06872515  0.22088474  0.17414750     1.01200
O183        O  0.06397950  0.23980509  0.19852579    -0.79280
O184        O  0.06224509  0.30306747  0.23070879    -0.79460
C185        C  0.09617023  0.33016402  0.24142848     1.01150
O186        O  0.06455204  0.02203480  0.18958891    -0.86790
O187        O  0.10381341  0.04109961  0.12589256    -0.83850
C188        C  0.11773338  0.03435296  0.09813981     0.96690
O189        O  0.13148356  0.34433229  0.09859598    -0.83880
O190        O  0.06859077  0.27192777  0.09885101    -0.86480
C191        C  0.36642434  0.24803390  0.10594991     1.01160
O192        O  0.35397527  0.24117132  0.13778197    -0.79300
O193        O  0.35402082  0.30158067  0.16462716    -0.79450
C194        C  0.03408100  0.33664745  0.17156143     1.01130
Cr195      Cr  0.11369552  0.02646693  0.17330922     1.93740
Cr196      Cr  0.11551448  0.29607204  0.12893221     1.93210
Cr197      Cr  0.04589764  0.27426281  0.18207625     1.39100
O198        O  0.09191617  0.30940131  0.16131445    -1.24540
O199        O  0.12468152  0.08283669  0.94299960    -0.86790
O200        O  0.16902643  0.09209736  0.00321338    -0.83840
C201        C  0.18853581  0.12852562  0.00639568     0.96670
O202        O  0.17015908  0.14815417  0.00954272    -0.83870
O203        O  0.09533282  0.15895594  0.01270066    -0.86510
C204        C  0.06872738  0.15146850  0.98887560     1.01200
O205        O  0.06397904  0.12779886  0.96450152    -0.79280
O206        O  0.06226697  0.06282310  0.93232644    -0.79460
C207        C  0.09620068  0.06967665  0.92161051     1.01150
O208        O  0.06457443  0.01282692  0.97343631    -0.86790
O209        O  0.10382430  0.03301588  0.03713685    -0.83850
C210        C  0.11773657  0.05368127  0.06489133     0.96690
O211        O  0.13148647  0.09078634  0.06443572    -0.83880
O212        O  0.06859261  0.10029946  0.06417718    -0.86480
C213        C  0.36642271  0.08867972  0.05707767     1.01160
O214        O  0.35397496  0.08308942  0.02524577    -0.79300
O215        O  0.35403799  0.02273763  0.99840253    -0.79450
C216        C  0.03410476  0.33440413  0.99146774     1.01130
Cr217      Cr  0.11371240  0.05753895  0.98972432     1.93740
Cr218      Cr  0.11552097  0.12307918  0.03409618     1.93210
Cr219      Cr  0.04590637  0.07526411  0.98095472     1.39100
O220        O  0.09192456  0.08614954  0.00171928    -1.24540
O221        O  0.02400728  0.21481485  0.05337970    -0.86790
O222        O  0.05907717  0.20552955  0.99316478    -0.83840
C223        C  0.37549016  0.16910485  0.98994818     0.96670
O224        O  0.33748905  0.14948004  0.98678442    -0.83870
O225        O  0.25186783  0.13870846  0.98360553    -0.86510
C226        C  0.23274761  0.14616521  0.00745566     1.01200
O227        O  0.25167124  0.16981954  0.03183986    -0.79280
O228        O  0.31492051  0.23480912  0.06403830    -0.79460
C229        C  0.34201294  0.22797735  0.07476224     1.01150
O230        O  0.03390360  0.28481174  0.02292690    -0.86790
O231        O  0.05299724  0.26463491  0.95923205    -0.83850
C232        C  0.04626275  0.24398175  0.93147111     0.96690
O233        O  0.35623373  0.20687777  0.93191598    -0.83880
O234        O  0.28385567  0.19741468  0.93216796    -0.86480
C235        C  0.25995401  0.20900945  0.93927114     1.01160
O236        O  0.25305630  0.21454774  0.97110566    -0.79300
O237        O  0.31345354  0.27489678  0.99796497    -0.79450
C238        C  0.01518697  0.29656374  0.00489410     1.01130
Cr239      Cr  0.03833808  0.24010212  0.00664654     1.93740
Cr240      Cr  0.30795592  0.17458571  0.96223926     1.93210
Cr241      Cr  0.28613343  0.22236544  0.01540235     1.39100
O242        O  0.32127810  0.21149235  0.99464014    -1.24540
O243        O  0.09478897  0.28559185  0.77632016    -0.86790
O244        O  0.10406970  0.25051167  0.83653147    -0.83840
C245        C  0.14049311  0.26743583  0.83974667     0.96670
O246        O  0.16011283  0.97210511  0.84291462    -0.83870
O247        O  0.17088103  0.05772491  0.84609585    -0.86510
C248        C  0.16343033  0.07684540  0.82224094     1.01200
O249        O  0.13977543  0.05792101  0.79785841    -0.79280
O250        O  0.07479146  0.99467775  0.76566302    -0.79460
C251        C  0.08163054  0.96759023  0.75493775     1.01150
O252        O  0.02478847  0.27568781  0.80677077    -0.86790
O253        O  0.04496066  0.25658764  0.87046219    -0.83850
C254        C  0.06560937  0.26332466  0.89822536     0.96690
O255        O  0.10271171  0.28668608  0.89778238    -0.83880
O256        O  0.11217305  0.02573446  0.89753110    -0.86480
C257        C  0.10058330  0.04964071  0.89042612     1.01160
O258        O  0.09505187  0.05654253  0.85859133    -0.79300
O259        O  0.03470376  0.99614183  0.83173338    -0.79450
C260        C  0.01303698  0.29440652  0.82480321     1.01130
Cr261      Cr  0.06949668  0.27125207  0.82305020     1.93740
Cr262      Cr  0.13500448  0.00163487  0.86746129     1.93210
Cr263      Cr  0.08723271  0.02346233  0.81429707     1.39100
O264        O  0.09810233  0.98831375  0.83505951    -1.24540
O265        O  0.22676292  0.51824360  0.88669443    -0.86790
O266        O  0.21750154  0.47389784  0.82647883    -0.83840
C267        C  0.18107544  0.45439228  0.82329507     0.96670
O268        O  0.16145268  0.47277371  0.82014251    -0.83870
O269        O  0.15066007  0.54760611  0.81697970    -0.86510
C270        C  0.15813698  0.57420365  0.84081229     1.01200
O271        O  0.18180562  0.57895238  0.86518660    -0.79280
O272        O  0.24677580  0.58066176  0.89736765    -0.79460
C273        C  0.23992122  0.54672586  0.90808425     1.01150
O274        O  0.29677217  0.57835140  0.85626049    -0.86790
O275        O  0.27659071  0.53910159  0.79255924    -0.83850
C276        C  0.25593232  0.52519392  0.76480090     0.96690
O277        O  0.21882916  0.51144462  0.76525247    -0.83880
O278        O  0.20932525  0.57434662  0.76551174    -0.86480
C279        C  0.22093993  0.60985023  0.77261398     1.01160
O280        O  0.22651989  0.62229411  0.80444712    -0.79300
O281        O  0.28686695  0.62222691  0.83129406    -0.79450
C282        C  0.30853038  0.60882286  0.83822841     1.01130
Cr283      Cr  0.25206232  0.52921281  0.83997008     1.93740
Cr284      Cr  0.18653573  0.52741374  0.79558931     1.93210
Cr285      Cr  0.23434044  0.59702515  0.84873795     1.39100
O286        O  0.22345708  0.55100546  0.82797215    -1.24540
O287        O  0.29748059  0.51829327  0.60964658    -0.86790
O288        O  0.26241411  0.47393721  0.66986401    -0.83840
C289        C  0.94599410  0.45442483  0.67306711     0.96670
O290        O  0.98399630  0.47279480  0.67621208    -0.83870
O291        O  0.06962275  0.54762162  0.67937767    -0.86510
C292        C  0.08874541  0.57422381  0.65554907     1.01200
O293        O  0.06982697  0.57897333  0.63117168    -0.79280
O294        O  0.00656708  0.58070923  0.59898621    -0.79460
C295        C  0.97947048  0.54678378  0.58826429     1.01150
O296        O  0.28760000  0.57839974  0.64010384    -0.86790
O297        O  0.26852829  0.53913159  0.70380040    -0.83850
C298        C  0.27526808  0.52520459  0.73155278     0.96690
O299        O  0.96528994  0.51145598  0.73109696    -0.83880
O300        O  0.03768675  0.57434999  0.73084462    -0.86480
C301        C  0.06158235  0.60985055  0.72374813     1.01160
O302        O  0.06845190  0.62230345  0.69191742    -0.79300
O303        O  0.00804776  0.62226303  0.66507163    -0.79450
C304        C  0.30631632  0.60886857  0.65813619     1.01130
Cr305      Cr  0.28316527  0.52925335  0.65638253     1.93740
Cr306      Cr  0.01355216  0.52742913  0.70076229     1.93210
Cr307      Cr  0.03536644  0.59705287  0.64762104     1.39100
O308        O  0.00022721  0.55103063  0.66837925    -1.24540
O309        O  0.19681814  0.61895039  0.72004628    -0.86790
O310        O  0.15246421  0.58388281  0.65982887    -0.83840
C311        C  0.13295384  0.60079891  0.65662735     0.96670
O312        O  0.15132641  0.30547036  0.65348147    -0.83870
O313        O  0.22614785  0.39109785  0.65032175    -0.86510
C314        C  0.25275023  0.41021747  0.67414829     1.01200
O315        O  0.25749543  0.39129646  0.69852637    -0.79280
O316        O  0.25923060  0.32803458  0.73070904    -0.79460
C317        C  0.22530534  0.30093855  0.74142958     1.01150
O318        O  0.25692333  0.60906742  0.68958964    -0.86790
O319        O  0.21766145  0.59000210  0.62589441    -0.83850
C320        C  0.20374171  0.59674890  0.59814169     0.96690
O321        O  0.18999222  0.62010353  0.59859763    -0.83880
O322        O  0.25288516  0.35917395  0.59885154    -0.86480
C323        C  0.28838461  0.38306820  0.60594986     1.01160
O324        O  0.96749999  0.38993144  0.63778167    -0.79300
O325        O  0.30078794  0.32952176  0.66462670    -0.79450
C326        C  0.28739432  0.62778820  0.67156131     1.01130
Cr327      Cr  0.20777974  0.60463534  0.67331107     1.93740
Cr328      Cr  0.20596144  0.33503050  0.62893317     1.93210
Cr329      Cr  0.27557771  0.35683937  0.68207628     1.39100
O330        O  0.22955926  0.32170093  0.66131539    -1.24540
O331        O  0.19679374  0.54826571  0.44300206    -0.86790
O332        O  0.15244872  0.53900497  0.50321624    -0.83840
C333        C  0.13293945  0.50257648  0.50639708     0.96670
O334        O  0.15131643  0.48294818  0.50954458    -0.83870
O335        O  0.22614284  0.47214639  0.51270275    -0.86510
C336        C  0.25274834  0.47963404  0.48887716     1.01200
O337        O  0.25749672  0.50330393  0.46450296    -0.79280
O338        O  0.25920832  0.56827951  0.43232757    -0.79460
C339        C  0.22527450  0.56142574  0.42161232     1.01150
O340        O  0.25690079  0.61827541  0.47343703    -0.86790
O341        O  0.21765088  0.59808613  0.53713846    -0.83850
C342        C  0.20373842  0.57742052  0.56489329     0.96690
O343        O  0.18998826  0.54031534  0.56443796    -0.83880
O344        O  0.25288238  0.53080212  0.56417878    -0.86480
C345        C  0.28838584  0.54242236  0.55707873     1.01160
O346        O  0.96750038  0.54801297  0.52524655    -0.79300
O347        O  0.30077049  0.60836459  0.49840270    -0.79450
C348        C  0.28737034  0.63003139  0.49146795     1.01130
Cr349      Cr  0.20776286  0.57356336  0.48972628     1.93740
Cr350      Cr  0.20595413  0.50802276  0.53409825     1.93210
Cr351      Cr  0.27556903  0.55583839  0.48095568     1.39100
O352        O  0.22955082  0.54495280  0.50172105    -1.24540
O353        O  0.29746843  0.41628715  0.55337940    -0.86790
O354        O  0.26239809  0.42557263  0.49316550    -0.83840
C355        C  0.94598536  0.46199740  0.48994892     0.96670
O356        O  0.98398651  0.48162201  0.48678435    -0.83870
O357        O  0.06960799  0.49239276  0.48360425    -0.86510
C358        C  0.08872741  0.48493618  0.50745534     1.01200
O359        O  0.06980281  0.46128112  0.53183923    -0.79280
O360        O  0.00655410  0.39629149  0.56403740    -0.79460
C361        C  0.97946256  0.40312438  0.57476179     1.01150
O362        O  0.28757135  0.34628990  0.52292716    -0.86790
O363        O  0.26847721  0.36646720  0.45923271    -0.83850
C364        C  0.27521189  0.38712060  0.43147149     0.96690
O365        O  0.96524146  0.42422461  0.43191587    -0.83880
O366        O  0.03761922  0.43368713  0.43216698    -0.86480
C367        C  0.06152097  0.42209249  0.43926987     1.01160
O368        O  0.06841916  0.41655473  0.47110434    -0.79300
O369        O  0.00802145  0.35620514  0.49796404    -0.79450
C370        C  0.30628799  0.66787152  0.50489384     1.01130
Cr371      Cr  0.28313690  0.39099973  0.50664688     1.93740
Cr372      Cr  0.01351949  0.45651631  0.46223855     1.93210
Cr373      Cr  0.03534137  0.40873591  0.51540132     1.39100
O374        O  0.00019689  0.41960927  0.49463954    -1.24540
O375        O  0.22668634  0.67884389  0.27632118    -0.86790
O376        O  0.21740519  0.38059058  0.33653190    -0.83840
C377        C  0.18098167  0.69699945  0.33974674     0.96670
O378        O  0.16136214  0.65899680  0.34291547    -0.83870
O379        O  0.15059455  0.57337669  0.34609777    -0.86510
C380        C  0.15804511  0.55425701  0.32224190     1.01200
O381        O  0.18170063  0.57318240  0.29785958    -0.79280
O382        O  0.24668470  0.63642534  0.26566431    -0.79460
C383        C  0.23984492  0.66351232  0.25493878     1.01150
O384        O  0.29668681  0.35541478  0.30677104    -0.86790
O385        O  0.27651417  0.37451497  0.37046240    -0.83850
C386        C  0.25586523  0.36777776  0.39822590     0.96690
O387        O  0.21876283  0.67774930  0.39778339    -0.83880
O388        O  0.20930189  0.60536773  0.39753264    -0.86480
C389        C  0.22089158  0.58146146  0.39042775     1.01160
O390        O  0.22642262  0.57455941  0.35859292    -0.79300
O391        O  0.28677118  0.63496057  0.33173449    -0.79450
C392        C  0.30843802  0.67002924  0.32480368     1.01130
Cr393      Cr  0.25197848  0.35985046  0.32305071     1.93740
Cr394      Cr  0.18647038  0.62946707  0.36746272     1.93210
Cr395      Cr  0.23424274  0.60764035  0.31429844     1.39100
O396        O  0.22337292  0.64278870  0.33506072    -1.24540
O397        O  0.09471170  0.44619144  0.38669236    -0.86790
O398        O  0.10397309  0.49053769  0.32647666    -0.83840
C399        C  0.14039941  0.51004322  0.32329437     0.96670
O400        O  0.16002199  0.49166160  0.32014139    -0.83870
O401        O  0.17081475  0.41682905  0.31697826    -0.86510
C402        C  0.16333741  0.39023133  0.34081129     1.01200
O403        O  0.13966818  0.38548230  0.36518547    -0.79280
O404        O  0.07469822  0.38377311  0.39736649    -0.79460
C405        C  0.08155334  0.41770915  0.40808268     1.01150
O406        O  0.02470249  0.38608388  0.35626000    -0.86790
O407        O  0.04488445  0.42533415  0.29255805    -0.83850
C408        C  0.06554319  0.43924210  0.26479942     0.96690
O409        O  0.10264646  0.45299158  0.26525074    -0.83880
O410        O  0.11215088  0.39008954  0.26551027    -0.86480
C411        C  0.10053559  0.68791897  0.27261278     1.01160
O412        O  0.09495494  0.67547470  0.30444611    -0.79300
O413        O  0.03460780  0.67554200  0.33129350    -0.79450
C414        C  0.01294438  0.68894599  0.33822821     1.01130
Cr415      Cr  0.06941239  0.43522253  0.33996856     1.93740
Cr416      Cr  0.13493963  0.43702207  0.29558773     1.93210
Cr417      Cr  0.08713389  0.36740995  0.34873689     1.39100
O418        O  0.09801760  0.41342982  0.32797061    -1.24660
O419        O  0.02399469  0.44614231  0.10964515    -0.86790
O420        O  0.05906104  0.49049853  0.16986156    -0.83840
C421        C  0.37548110  0.51001086  0.17306569     0.96670
O422        O  0.33747887  0.49164092  0.17621094    -0.83870
O423        O  0.25185226  0.41681340  0.17937732    -0.86510
C424        C  0.23273026  0.39021213  0.15554836     1.01200
O425        O  0.25164947  0.38546293  0.13117134    -0.79280
O426        O  0.31490878  0.38372619  0.09898639    -0.79460
C427        C  0.34200490  0.41765172  0.08826353     1.01150
O428        O  0.03387553  0.38603602  0.14010341    -0.86790
O429        O  0.05294750  0.42530462  0.20379901    -0.83850
C430        C  0.04620751  0.43923145  0.23155134     0.96690
O431        O  0.35618512  0.45297948  0.23109570    -0.83880
O432        O  0.28378874  0.39008556  0.23084453    -0.86480
C433        C  0.25989287  0.68791858  0.22374868     1.01160
O434        O  0.25302302  0.67546590  0.19191822    -0.79300
O435        O  0.31342765  0.67550616  0.16507265    -0.79450
C436        C  0.01515910  0.35556722  0.15813651     1.01130
Cr437      Cr  0.03831025  0.43518251  0.15638109     1.93740
Cr438      Cr  0.30792297  0.43700634  0.20076156     1.93210
Cr439      Cr  0.28610921  0.36738297  0.14762146     1.39100
O440        O  0.32124830  0.41340516  0.16837868    -1.24540
O441        O  0.12465741  0.67881907  0.22004453    -0.86790
O442        O  0.16901119  0.38055330  0.15982599    -0.83840
C443        C  0.18852169  0.69697053  0.15662582     0.96670
O444        O  0.17014915  0.65896576  0.15348027    -0.83870
O445        O  0.09532859  0.57333826  0.15032138    -0.86510
C446        C  0.06872515  0.55421807  0.17414750     1.01200
O447        O  0.06397950  0.57313842  0.19852579    -0.79280
O448        O  0.06224509  0.63640080  0.23070879    -0.79460
C449        C  0.09617023  0.66349735  0.24142848     1.01150
O450        O  0.06455204  0.35536813  0.18958891    -0.86790
O451        O  0.10381341  0.37443295  0.12589256    -0.83850
C452        C  0.11773338  0.36768630  0.09813981     0.96690
O453        O  0.13148356  0.67766562  0.09859598    -0.83880
O454        O  0.06859077  0.60526111  0.09885101    -0.86480
C455        C  0.36642434  0.58136724  0.10594991     1.01160
O456        O  0.35397527  0.57450465  0.13778197    -0.79300
O457        O  0.35402082  0.63491400  0.16462716    -0.79450
C458        C  0.03408100  0.66998078  0.17156143     1.01130
Cr459      Cr  0.11369552  0.35980026  0.17330922     1.93740
Cr460      Cr  0.11551448  0.62940538  0.12893220     1.93210
Cr461      Cr  0.04589764  0.60759614  0.18207624     1.39100
O462        O  0.09191617  0.64273464  0.16131445    -1.24540
O463        O  0.12468152  0.41617002  0.94299960    -0.86790
O464        O  0.16902643  0.42543069  0.00321338    -0.83840
C465        C  0.18853581  0.46185895  0.00639568     0.96670
O466        O  0.17015908  0.48148750  0.00954272    -0.83870
O467        O  0.09533282  0.49228927  0.01270066    -0.86510
C468        C  0.06872738  0.48480184  0.98887560     1.01200
O469        O  0.06397904  0.46113219  0.96450152    -0.79280
O470        O  0.06226697  0.39615644  0.93232644    -0.79460
C471        C  0.09620068  0.40300998  0.92161051     1.01150
O472        O  0.06457443  0.34616025  0.97343631    -0.86790
O473        O  0.10382430  0.36634921  0.03713685    -0.83850
C474        C  0.11773657  0.38701461  0.06489133     0.96690
O475        O  0.13148647  0.42411968  0.06443572    -0.83880
O476        O  0.06859261  0.43363279  0.06417718    -0.86480
C477        C  0.36642271  0.42201305  0.05707767     1.01160
O478        O  0.35397496  0.41642275  0.02524577    -0.79300
O479        O  0.35403799  0.35607097  0.99840253    -0.79450
C480        C  0.03410476  0.66773747  0.99146774     1.01130
Cr481      Cr  0.11371240  0.39087229  0.98972432     1.93740
Cr482      Cr  0.11552097  0.45641251  0.03409618     1.93210
Cr483      Cr  0.04590637  0.40859744  0.98095472     1.39100
O484        O  0.09192456  0.41948288  0.00171928    -1.24540
O485        O  0.02400728  0.54814818  0.05337970    -0.86790
O486        O  0.05907717  0.53886288  0.99316478    -0.83840
C487        C  0.37549016  0.50243818  0.98994818     0.96670
O488        O  0.33748905  0.48281338  0.98678442    -0.83870
O489        O  0.25186783  0.47204179  0.98360553    -0.86510
C490        C  0.23274761  0.47949855  0.00745566     1.01200
O491        O  0.25167124  0.50315287  0.03183986    -0.79280
O492        O  0.31492051  0.56814245  0.06403830    -0.79460
C493        C  0.34201294  0.56131068  0.07476224     1.01150
O494        O  0.03390360  0.61814508  0.02292690    -0.86790
O495        O  0.05299724  0.59796824  0.95923205    -0.83850
C496        C  0.04626275  0.57731508  0.93147111     0.96690
O497        O  0.35623373  0.54021110  0.93191598    -0.83880
O498        O  0.28385567  0.53074802  0.93216796    -0.86480
C499        C  0.25995401  0.54234278  0.93927114     1.01160
O500        O  0.25305630  0.54788107  0.97110566    -0.79300
O501        O  0.31345354  0.60823011  0.99796497    -0.79450
C502        C  0.01518697  0.62989707  0.00489410     1.01130
Cr503      Cr  0.03833808  0.57343545  0.00664654     1.93740
Cr504      Cr  0.30795592  0.50791904  0.96223926     1.93210
Cr505      Cr  0.28613343  0.55569878  0.01540235     1.39100
O506        O  0.32127810  0.54482569  0.99464014    -1.24540
O507        O  0.09478897  0.61892519  0.77632016    -0.86790
O508        O  0.10406970  0.58384501  0.83653147    -0.83840
C509        C  0.14049311  0.60076916  0.83974667     0.96670
O510        O  0.16011283  0.30543844  0.84291462    -0.83870
O511        O  0.17088103  0.39105824  0.84609585    -0.86510
C512        C  0.16343033  0.41017874  0.82224094     1.01200
O513        O  0.13977543  0.39125434  0.79785841    -0.79280
O514        O  0.07479146  0.32801109  0.76566302    -0.79460
C515        C  0.08163054  0.30092356  0.75493775     1.01150
O516        O  0.02478847  0.60902115  0.80677077    -0.86790
O517        O  0.04496066  0.58992098  0.87046219    -0.83850
C518        C  0.06560937  0.59665799  0.89822536     0.96690
O519        O  0.10271171  0.62001941  0.89778238    -0.83880
O520        O  0.11217305  0.35906779  0.89753110    -0.86480
C521        C  0.10058330  0.38297404  0.89042612     1.01160
O522        O  0.09505187  0.38987587  0.85859133    -0.79300
O523        O  0.03470376  0.32947516  0.83173338    -0.79450
C524        C  0.01303698  0.62773986  0.82480321     1.01130
Cr525      Cr  0.06949668  0.60458540  0.82305020     1.93740
Cr526      Cr  0.13500448  0.33496820  0.86746129     1.93210
Cr527      Cr  0.08723271  0.35679567  0.81429707     1.39100
O528        O  0.09810233  0.32164708  0.83505951    -1.24540
O529        O  0.22676292  0.85157694  0.88669443    -0.86790
O530        O  0.21750154  0.80723118  0.82647883    -0.83840
C531        C  0.18107544  0.78772561  0.82329507     0.96670
O532        O  0.16145268  0.80610705  0.82014251    -0.83870
O533        O  0.15066007  0.88093944  0.81697970    -0.86510
C534        C  0.15813698  0.90753698  0.84081229     1.01200
O535        O  0.18180562  0.91228571  0.86518660    -0.79280
O536        O  0.24677579  0.91399510  0.89736765    -0.79460
C537        C  0.23992122  0.88005919  0.90808425     1.01150
O538        O  0.29677217  0.91168474  0.85626049    -0.86790
O539        O  0.27659071  0.87243492  0.79255924    -0.83850
C540        C  0.25593232  0.85852726  0.76480090     0.96690
O541        O  0.21882916  0.84477795  0.76525247    -0.83880
O542        O  0.20932525  0.90767995  0.76551174    -0.86480
C543        C  0.22093993  0.94318356  0.77261398     1.01160
O544        O  0.22651989  0.95562744  0.80444712    -0.79300
O545        O  0.28686695  0.95556024  0.83129406    -0.79450
C546        C  0.30853038  0.94215619  0.83822841     1.01130
Cr547      Cr  0.25206232  0.86254615  0.83997008     1.93740
Cr548      Cr  0.18653573  0.86074707  0.79558931     1.93210
Cr549      Cr  0.23434044  0.93035848  0.84873795     1.39100
O550        O  0.22345708  0.88433880  0.82797215    -1.24540
O551        O  0.29748059  0.85162660  0.60964658    -0.86790
O552        O  0.26241411  0.80727055  0.66986401    -0.83840
C553        C  0.94599410  0.78775816  0.67306711     0.96670
O554        O  0.98399630  0.80612813  0.67621208    -0.83870
O555        O  0.06962275  0.88095495  0.67937767    -0.86510
C556        C  0.08874541  0.90755714  0.65554907     1.01200
O557        O  0.06982697  0.91230666  0.63117168    -0.79280
O558        O  0.00656708  0.91404257  0.59898621    -0.79460
C559        C  0.97947048  0.88011712  0.58826429     1.01150
O560        O  0.28760000  0.91173307  0.64010384    -0.86790
O561        O  0.26852829  0.87246492  0.70380040    -0.83850
C562        C  0.27526808  0.85853793  0.73155278     0.96690
O563        O  0.96528994  0.84478932  0.73109697    -0.83880
O564        O  0.03768675  0.90768333  0.73084462    -0.86480
C565        C  0.06158235  0.94318388  0.72374813     1.01160
O566        O  0.06845190  0.95563679  0.69191742    -0.79300
O567        O  0.00804776  0.95559636  0.66507163    -0.79450
C568        C  0.30631632  0.94220190  0.65813619     1.01130
Cr569      Cr  0.28316527  0.86258668  0.65638253     1.93740
Cr570      Cr  0.01355216  0.86076246  0.70076229     1.93210
Cr571      Cr  0.03536644  0.93038620  0.64762104     1.39100
O572        O  0.00022721  0.88436397  0.66837925    -1.24540
O573        O  0.19681814  0.95228372  0.72004628    -0.86790
O574        O  0.15246421  0.91721614  0.65982887    -0.83840
C575        C  0.13295384  0.93413224  0.65662735     0.96670
O576        O  0.15132641  0.63880369  0.65348147    -0.83870
O577        O  0.22614785  0.72443118  0.65032175    -0.86510
C578        C  0.25275023  0.74355081  0.67414829     1.01200
O579        O  0.25749543  0.72462979  0.69852637    -0.79280
O580        O  0.25923060  0.66136791  0.73070904    -0.79460
C581        C  0.22530534  0.63427188  0.74142958     1.01150
O582        O  0.25692333  0.94240075  0.68958964    -0.86790
O583        O  0.21766145  0.92333543  0.62589441    -0.83850
C584        C  0.20374171  0.93008223  0.59814169     0.96690
O585        O  0.18999222  0.95343687  0.59859763    -0.83880
O586        O  0.25288516  0.69250729  0.59885154    -0.86480
C587        C  0.28838461  0.71640153  0.60594986     1.01160
O588        O  0.96749999  0.72326477  0.63778167    -0.79300
O589        O  0.30078793  0.66285509  0.66462670    -0.79450
C590        C  0.28739432  0.96112153  0.67156131     1.01130
Cr591      Cr  0.20777974  0.93796867  0.67331107     1.93740
Cr592      Cr  0.20596144  0.66836383  0.62893317     1.93210
Cr593      Cr  0.27557771  0.69017270  0.68207628     1.39100
O594        O  0.22955926  0.65503426  0.66131539    -1.24540
O595        O  0.19679374  0.88159905  0.44300207    -0.86790
O596        O  0.15244872  0.87233830  0.50321624    -0.83840
C597        C  0.13293945  0.83590982  0.50639708     0.96670
O598        O  0.15131643  0.81628151  0.50954458    -0.83870
O599        O  0.22614284  0.80547973  0.51270275    -0.86510
C600        C  0.25274834  0.81296737  0.48887716     1.01200
O601        O  0.25749672  0.83663726  0.46450296    -0.79280
O602        O  0.25920832  0.90161284  0.43232757    -0.79460
C603        C  0.22527450  0.89475907  0.42161232     1.01150
O604        O  0.25690079  0.95160875  0.47343703    -0.86790
O605        O  0.21765088  0.93141947  0.53713846    -0.83850
C606        C  0.20373842  0.91075386  0.56489329     0.96690
O607        O  0.18998826  0.87364868  0.56443796    -0.83880
O608        O  0.25288238  0.86413545  0.56417878    -0.86480
C609        C  0.28838584  0.87575569  0.55707873     1.01160
O610        O  0.96750038  0.88134630  0.52524655    -0.79300
O611        O  0.30077049  0.94169793  0.49840270    -0.79450
C612        C  0.28737034  0.96336472  0.49146795     1.01130
Cr613      Cr  0.20776286  0.90689669  0.48972628     1.93740
Cr614      Cr  0.20595413  0.84135609  0.53409825     1.93210
Cr615      Cr  0.27556903  0.88917172  0.48095568     1.39100
O616        O  0.22955082  0.87828613  0.50172105    -1.24540
O617        O  0.29746842  0.74962048  0.55337940    -0.86790
O618        O  0.26239809  0.75890596  0.49316550    -0.83840
C619        C  0.94598536  0.79533073  0.48994892     0.96670
O620        O  0.98398651  0.81495534  0.48678435    -0.83870
O621        O  0.06960799  0.82572609  0.48360425    -0.86510
C622        C  0.08872741  0.81826951  0.50745534     1.01200
O623        O  0.06980281  0.79461446  0.53183923    -0.79280
O624        O  0.00655410  0.72962482  0.56403740    -0.79460
C625        C  0.97946256  0.73645771  0.57476179     1.01150
O626        O  0.28757135  0.67962324  0.52292716    -0.86790
O627        O  0.26847721  0.69980053  0.45923271    -0.83850
C628        C  0.27521189  0.72045393  0.43147149     0.96690
O629        O  0.96524146  0.75755795  0.43191587    -0.83880
O630        O  0.03761922  0.76702046  0.43216698    -0.86480
C631        C  0.06152097  0.75542583  0.43926987     1.01160
O632        O  0.06841916  0.74988806  0.47110434    -0.79300
O633        O  0.00802145  0.68953847  0.49796404    -0.79450
C634        C  0.30628799  0.00120485  0.50489384     1.01130
Cr635      Cr  0.28313690  0.72433307  0.50664688     1.93740
Cr636      Cr  0.01351949  0.78984965  0.46223855     1.93210
Cr637      Cr  0.03534137  0.74206924  0.51540132     1.39100
O638        O  0.00019689  0.75294260  0.49463954    -1.24540
O639        O  0.22668634  0.01217722  0.27632118    -0.86790
O640        O  0.21740519  0.71392391  0.33653190    -0.83840
C641        C  0.18098167  0.03033279  0.33974674     0.96670
O642        O  0.16136214  0.99233013  0.34291547    -0.83870
O643        O  0.15059455  0.90671003  0.34609777    -0.86510
C644        C  0.15804511  0.88759034  0.32224190     1.01200
O645        O  0.18170063  0.90651573  0.29785958    -0.79280
O646        O  0.24668470  0.96975867  0.26566431    -0.79460
C647        C  0.23984492  0.99684565  0.25493878     1.01150
O648        O  0.29668681  0.68874811  0.30677104    -0.86790
O649        O  0.27651417  0.70784831  0.37046240    -0.83850
C650        C  0.25586524  0.70111109  0.39822590     0.96690
O651        O  0.21876283  0.01108263  0.39778339    -0.83880
O652        O  0.20930189  0.93870107  0.39753264    -0.86480
C653        C  0.22089158  0.91479479  0.39042775     1.01160
O654        O  0.22642262  0.90789274  0.35859292    -0.79300
O655        O  0.28677118  0.96829391  0.33173449    -0.79450
C656        C  0.30843802  0.00336257  0.32480368     1.01130
Cr657      Cr  0.25197848  0.69318380  0.32305071     1.93740
Cr658      Cr  0.18647038  0.96280041  0.36746272     1.93210
Cr659      Cr  0.23424274  0.94097368  0.31429844     1.39100
O660        O  0.22337292  0.97612203  0.33506072    -1.24540
O661        O  0.09471170  0.77952478  0.38669236    -0.86790
O662        O  0.10397309  0.82387103  0.32647666    -0.83840
C663        C  0.14039941  0.84337656  0.32329437     0.96670
O664        O  0.16002199  0.82499493  0.32014139    -0.83870
O665        O  0.17081475  0.75016239  0.31697826    -0.86510
C666        C  0.16333741  0.72356466  0.34081129     1.01200
O667        O  0.13966818  0.71881564  0.36518546    -0.79280
O668        O  0.07469822  0.71710644  0.39736649    -0.79460
C669        C  0.08155334  0.75104248  0.40808268     1.01150
O670        O  0.02470249  0.71941722  0.35626000    -0.86790
O671        O  0.04488445  0.75866749  0.29255805    -0.83850
C672        C  0.06554319  0.77257543  0.26479942     0.96690
O673        O  0.10264646  0.78632491  0.26525074    -0.83880
O674        O  0.11215088  0.72342288  0.26551027    -0.86480
C675        C  0.10053559  0.02125230  0.27261278     1.01160
O676        O  0.09495494  0.00880804  0.30444611    -0.79300
O677        O  0.03460780  0.00887533  0.33129350    -0.79450
C678        C  0.01294439  0.02227933  0.33822821     1.01130
Cr679      Cr  0.06941239  0.76855586  0.33996856     1.93740
Cr680      Cr  0.13493963  0.77035541  0.29558773     1.93210
Cr681      Cr  0.08713389  0.70074328  0.34873689     1.39100
O682        O  0.09801760  0.74676315  0.32797061    -1.24660
O683        O  0.02399469  0.77947565  0.10964515    -0.86790
O684        O  0.05906104  0.82383187  0.16986156    -0.83840
C685        C  0.37548110  0.84334419  0.17306569     0.96670
O686        O  0.33747887  0.82497425  0.17621094    -0.83870
O687        O  0.25185226  0.75014674  0.17937732    -0.86510
C688        C  0.23273026  0.72354546  0.15554836     1.01200
O689        O  0.25164947  0.71879627  0.13117134    -0.79280
O690        O  0.31490878  0.71705952  0.09898639    -0.79460
C691        C  0.34200490  0.75098505  0.08826353     1.01150
O692        O  0.03387553  0.71936936  0.14010341    -0.86790
O693        O  0.05294750  0.75863795  0.20379901    -0.83850
C694        C  0.04620751  0.77256478  0.23155134     0.96690
O695        O  0.35618512  0.78631282  0.23109570    -0.83880
O696        O  0.28378874  0.72341890  0.23084453    -0.86480
C697        C  0.25989288  0.02125191  0.22374868     1.01160
O698        O  0.25302302  0.00879924  0.19191822    -0.79300
O699        O  0.31342765  0.00883949  0.16507265    -0.79450
C700        C  0.01515910  0.68890056  0.15813651     1.01130
Cr701      Cr  0.03831025  0.76851585  0.15638109     1.93740
Cr702      Cr  0.30792297  0.77033967  0.20076156     1.93210
Cr703      Cr  0.28610921  0.70071630  0.14762146     1.39100
O704        O  0.32124830  0.74673849  0.16837868    -1.24540
O705        O  0.12465741  0.01215241  0.22004453    -0.86790
O706        O  0.16901119  0.71388664  0.15982599    -0.83840
C707        C  0.18852169  0.03030386  0.15662582     0.96670
O708        O  0.17014915  0.99229910  0.15348027    -0.83870
O709        O  0.09532859  0.90667159  0.15032138    -0.86510
C710        C  0.06872515  0.88755140  0.17414750     1.01200
O711        O  0.06397950  0.90647175  0.19852579    -0.79280
O712        O  0.06224509  0.96973413  0.23070879    -0.79460
C713        C  0.09617023  0.99683068  0.24142848     1.01150
O714        O  0.06455204  0.68870146  0.18958891    -0.86790
O715        O  0.10381341  0.70776628  0.12589256    -0.83850
C716        C  0.11773338  0.70101963  0.09813981     0.96690
O717        O  0.13148356  0.01099896  0.09859598    -0.83880
O718        O  0.06859077  0.93859444  0.09885101    -0.86480
C719        C  0.36642434  0.91470057  0.10594991     1.01160
O720        O  0.35397527  0.90783799  0.13778197    -0.79300
O721        O  0.35402082  0.96824733  0.16462716    -0.79450
C722        C  0.03408100  0.00331412  0.17156143     1.01130
Cr723      Cr  0.11369552  0.69313359  0.17330922     1.93740
Cr724      Cr  0.11551448  0.96273871  0.12893220     1.93210
Cr725      Cr  0.04589764  0.94092948  0.18207625     1.39100
O726        O  0.09191617  0.97606798  0.16131445    -1.24540
O727        O  0.12468152  0.74950335  0.94299960    -0.86790
O728        O  0.16902643  0.75876402  0.00321338    -0.83840
C729        C  0.18853581  0.79519229  0.00639568     0.96670
O730        O  0.17015908  0.81482084  0.00954272    -0.83870
O731        O  0.09533282  0.82562261  0.01270066    -0.86510
C732        C  0.06872738  0.81813517  0.98887560     1.01200
O733        O  0.06397904  0.79446553  0.96450152    -0.79280
O734        O  0.06226697  0.72948977  0.93232644    -0.79460
C735        C  0.09620068  0.73634332  0.92161051     1.01150
O736        O  0.06457443  0.67949359  0.97343631    -0.86790
O737        O  0.10382430  0.69968255  0.03713685    -0.83850
C738        C  0.11773657  0.72034794  0.06489133     0.96690
O739        O  0.13148647  0.75745301  0.06443572    -0.83880
O740        O  0.06859261  0.76696613  0.06417718    -0.86480
C741        C  0.36642271  0.75534639  0.05707767     1.01160
O742        O  0.35397496  0.74975609  0.02524577    -0.79300
O743        O  0.35403799  0.68940430  0.99840253    -0.79450
C744        C  0.03410476  0.00107080  0.99146774     1.01130
Cr745      Cr  0.11371240  0.72420562  0.98972432     1.93740
Cr746      Cr  0.11552097  0.78974584  0.03409618     1.93210
Cr747      Cr  0.04590637  0.74193078  0.98095472     1.39100
O748        O  0.09192456  0.75281621  0.00171928    -1.24540
O749        O  0.02400728  0.88148151  0.05337970    -0.86790
O750        O  0.05907717  0.87219622  0.99316478    -0.83840
C751        C  0.37549016  0.83577152  0.98994818     0.96670
O752        O  0.33748905  0.81614671  0.98678442    -0.83870
O753        O  0.25186783  0.80537513  0.98360553    -0.86510
C754        C  0.23274761  0.81283188  0.00745566     1.01200
O755        O  0.25167124  0.83648621  0.03183986    -0.79280
O756        O  0.31492051  0.90147578  0.06403830    -0.79460
C757        C  0.34201294  0.89464401  0.07476224     1.01150
O758        O  0.03390360  0.95147841  0.02292690    -0.86790
O759        O  0.05299724  0.93130157  0.95923205    -0.83850
C760        C  0.04626275  0.91064842  0.93147111     0.96690
O761        O  0.35623373  0.87354443  0.93191598    -0.83880
O762        O  0.28385567  0.86408135  0.93216796    -0.86480
C763        C  0.25995401  0.87567612  0.93927114     1.01160
O764        O  0.25305630  0.88121440  0.97110566    -0.79300
O765        O  0.31345354  0.94156345  0.99796497    -0.79450
C766        C  0.01518697  0.96323040  0.00489410     1.01130
Cr767      Cr  0.03833808  0.90676879  0.00664654     1.93740
Cr768      Cr  0.30795592  0.84125238  0.96223926     1.93210
Cr769      Cr  0.28613343  0.88903211  0.01540235     1.39100
O770        O  0.32127810  0.87815902  0.99464014    -1.24540
O771        O  0.09478897  0.95225852  0.77632016    -0.86790
O772        O  0.10406970  0.91717834  0.83653147    -0.83840
C773        C  0.14049311  0.93410249  0.83974667     0.96670
O774        O  0.16011283  0.63877177  0.84291462    -0.83870
O775        O  0.17088103  0.72439158  0.84609585    -0.86510
C776        C  0.16343033  0.74351207  0.82224094     1.01200
O777        O  0.13977543  0.72458767  0.79785841    -0.79280
O778        O  0.07479146  0.66134442  0.76566302    -0.79460
C779        C  0.08163054  0.63425689  0.75493775     1.01150
O780        O  0.02478847  0.94235448  0.80677077    -0.86790
O781        O  0.04496066  0.92325431  0.87046219    -0.83850
C782        C  0.06560937  0.92999133  0.89822536     0.96690
O783        O  0.10271171  0.95335275  0.89778238    -0.83880
O784        O  0.11217305  0.69240113  0.89753110    -0.86480
C785        C  0.10058330  0.71630738  0.89042612     1.01160
O786        O  0.09505187  0.72320920  0.85859133    -0.79300
O787        O  0.03470376  0.66280850  0.83173338    -0.79450
C788        C  0.01303698  0.96107319  0.82480321     1.01130
Cr789      Cr  0.06949668  0.93791873  0.82305020     1.93740
Cr790      Cr  0.13500448  0.66830154  0.86746129     1.93210
Cr791      Cr  0.08723271  0.69012900  0.81429707     1.39100
O792        O  0.09810233  0.65498041  0.83505951    -1.24540
O793        O  0.56009625  0.18491027  0.88669443    -0.86790
O794        O  0.55083487  0.14056451  0.82647883    -0.83840
C795        C  0.51440877  0.12105895  0.82329507     0.96670
O796        O  0.49478602  0.13944038  0.82014251    -0.83870
O797        O  0.48399340  0.21427278  0.81697970    -0.86510
C798        C  0.49147032  0.24087032  0.84081229     1.01200
O799        O  0.51513896  0.24561905  0.86518660    -0.79280
O800        O  0.58010913  0.24732843  0.89736765    -0.79460
C801        C  0.57325456  0.21339253  0.90808425     1.01150
O802        O  0.63010550  0.24501807  0.85626049    -0.86790
O803        O  0.60992404  0.20576825  0.79255924    -0.83850
C804        C  0.58926565  0.19186059  0.76480090     0.96690
O805        O  0.55216249  0.17811129  0.76525247    -0.83880
O806        O  0.54265859  0.24101328  0.76551174    -0.86480
C807        C  0.55427327  0.27651690  0.77261398     1.01160
O808        O  0.55985323  0.28896077  0.80444712    -0.79300
O809        O  0.62020028  0.28889358  0.83129406    -0.79450
C810        C  0.64186372  0.27548952  0.83822841     1.01130
Cr811      Cr  0.58539565  0.19587948  0.83997008     1.93740
Cr812      Cr  0.51986906  0.19408041  0.79558931     1.93210
Cr813      Cr  0.56767378  0.26369181  0.84873795     1.39100
O814        O  0.55679042  0.21767213  0.82797215    -1.24540
O815        O  0.63081393  0.18495993  0.60964658    -0.86790
O816        O  0.59574745  0.14060388  0.66986401    -0.83840
C817        C  0.27932743  0.12109149  0.67306711     0.96670
O818        O  0.31732963  0.13946146  0.67621208    -0.83870
O819        O  0.40295608  0.21428828  0.67937767    -0.86510
C820        C  0.42207875  0.24089047  0.65554907     1.01200
O821        O  0.40316030  0.24564000  0.63117168    -0.79280
O822        O  0.33990041  0.24737590  0.59898621    -0.79460
C823        C  0.31280381  0.21345045  0.58826429     1.01150
O824        O  0.62093334  0.24506640  0.64010383    -0.86790
O825        O  0.60186163  0.20579825  0.70380040    -0.83850
C826        C  0.60860141  0.19187126  0.73155278     0.96690
O827        O  0.29862328  0.17812265  0.73109697    -0.83880
O828        O  0.37102008  0.24101666  0.73084462    -0.86480
C829        C  0.39491568  0.27651721  0.72374813     1.01160
O830        O  0.40178523  0.28897012  0.69191742    -0.79300
O831        O  0.34138109  0.28892969  0.66507163    -0.79450
C832        C  0.63964966  0.27553523  0.65813619     1.01130
Cr833      Cr  0.61649860  0.19592001  0.65638253     1.93740
Cr834      Cr  0.34688549  0.19409579  0.70076229     1.93210
Cr835      Cr  0.36869977  0.26371953  0.64762104     1.39100
O836        O  0.33356055  0.21769730  0.66837925    -1.24540
O837        O  0.53015147  0.28561706  0.72004628    -0.86790
O838        O  0.48579754  0.25054947  0.65982887    -0.83840
C839        C  0.46628717  0.26746557  0.65662735     0.96670
O840        O  0.48465974  0.97213703  0.65348147    -0.83870
O841        O  0.55948119  0.05776452  0.65032175    -0.86510
C842        C  0.58608356  0.07688414  0.67414829     1.01200
O843        O  0.59082876  0.05796312  0.69852637    -0.79280
O844        O  0.59256393  0.99470125  0.73070904    -0.79460
C845        C  0.55863867  0.96760522  0.74142958     1.01150
O846        O  0.59025667  0.27573408  0.68958964    -0.86790
O847        O  0.55099479  0.25666876  0.62589441    -0.83850
C848        C  0.53707504  0.26341557  0.59814169     0.96690
O849        O  0.52332556  0.28677020  0.59859763    -0.83880
O850        O  0.58621849  0.02584062  0.59885154    -0.86480
C851        C  0.62171795  0.04973486  0.60594986     1.01160
O852        O  0.30083332  0.05659810  0.63778167    -0.79300
O853        O  0.63412127  0.99618842  0.66462670    -0.79450
C854        C  0.62072765  0.29445486  0.67156131     1.01130
Cr855      Cr  0.54111307  0.27130201  0.67331107     1.93740
Cr856      Cr  0.53929477  0.00169716  0.62893317     1.93210
Cr857      Cr  0.60891104  0.02350604  0.68207628     1.39100
O858        O  0.56289259  0.98836759  0.66131539    -1.24540
O859        O  0.53012708  0.21493238  0.44300206    -0.86790
O860        O  0.48578205  0.20567163  0.50321624    -0.83840
C861        C  0.46627279  0.16924315  0.50639708     0.96670
O862        O  0.48464977  0.14961484  0.50954458    -0.83870
O863        O  0.55947618  0.13881306  0.51270275    -0.86510
C864        C  0.58608168  0.14630071  0.48887716     1.01200
O865        O  0.59083005  0.16997059  0.46450296    -0.79280
O866        O  0.59254165  0.23494617  0.43232757    -0.79460
C867        C  0.55860784  0.22809240  0.42161232     1.01150
O868        O  0.59023412  0.28494208  0.47343703    -0.86790
O869        O  0.55098421  0.26475280  0.53713846    -0.83850
C870        C  0.53707175  0.24408719  0.56489329     0.96690
O871        O  0.52332159  0.20698201  0.56443796    -0.83880
O872        O  0.58621572  0.19746879  0.56417878    -0.86480
C873        C  0.62171918  0.20908902  0.55707873     1.01160
O874        O  0.30083371  0.21467963  0.52524655    -0.79300
O875        O  0.63410382  0.27503126  0.49840270    -0.79450
C876        C  0.62070367  0.29669806  0.49146795     1.01130
Cr877      Cr  0.54109620  0.24023003  0.48972628     1.93740
Cr878      Cr  0.53928747  0.17468942  0.53409825     1.93210
Cr879      Cr  0.60890237  0.22250506  0.48095568     1.39100
O880        O  0.56288415  0.21161946  0.50172105    -1.24540
O881        O  0.63080176  0.08295382  0.55337940    -0.86790
O882        O  0.59573143  0.09223929  0.49316550    -0.83840
C883        C  0.27931870  0.12866406  0.48994892     0.96670
O884        O  0.31731985  0.14828867  0.48678435    -0.83870
O885        O  0.40294132  0.15905942  0.48360426    -0.86510
C886        C  0.42206075  0.15160285  0.50745534     1.01200
O887        O  0.40313615  0.12794779  0.53183923    -0.79280
O888        O  0.33988743  0.06295816  0.56403740    -0.79460
C889        C  0.31279589  0.06979105  0.57476179     1.01150
O890        O  0.62090469  0.01295657  0.52292716    -0.86790
O891        O  0.60181055  0.03313387  0.45923271    -0.83850
C892        C  0.60854522  0.05378726  0.43147149     0.96690
O893        O  0.29857479  0.09089128  0.43191587    -0.83880
O894        O  0.37095255  0.10035380  0.43216698    -0.86480
C895        C  0.39485430  0.08875916  0.43926987     1.01160
O896        O  0.40175249  0.08322139  0.47110434    -0.79300
O897        O  0.34135479  0.02287180  0.49796404    -0.79450
C898        C  0.63962132  0.33453819  0.50489384     1.01130
Cr899      Cr  0.61647024  0.05766640  0.50664688     1.93740
Cr900      Cr  0.34685282  0.12318298  0.46223855     1.93210
Cr901      Cr  0.36867471  0.07540258  0.51540132     1.39100
O902        O  0.33353022  0.08627594  0.49463954    -1.24540
O903        O  0.56001967  0.34551055  0.27632118    -0.86790
O904        O  0.55073853  0.04725724  0.33653190    -0.83840
C905        C  0.51431501  0.36366612  0.33974674     0.96670
O906        O  0.49469548  0.32566346  0.34291547    -0.83870
O907        O  0.48392788  0.24004336  0.34609777    -0.86510
C908        C  0.49137845  0.22092367  0.32224190     1.01200
O909        O  0.51503396  0.23984906  0.29785958    -0.79280
O910        O  0.58001803  0.30309200  0.26566431    -0.79460
C911        C  0.57317825  0.33017899  0.25493878     1.01150
O912        O  0.63002015  0.02208145  0.30677104    -0.86790
O913        O  0.60984750  0.04118164  0.37046240    -0.83850
C914        C  0.58919857  0.03444442  0.39822590     0.96690
O915        O  0.55209616  0.34441596  0.39778339    -0.83880
O916        O  0.54263522  0.27203440  0.39753264    -0.86480
C917        C  0.55422492  0.24812813  0.39042775     1.01160
O918        O  0.55975596  0.24122608  0.35859292    -0.79300
O919        O  0.62010452  0.30162724  0.33173449    -0.79450
C920        C  0.64177135  0.33669591  0.32480368     1.01130
Cr921      Cr  0.58531182  0.02651713  0.32305071     1.93740
Cr922      Cr  0.51980371  0.29613374  0.36746272     1.93210
Cr923      Cr  0.56757607  0.27430702  0.31429844     1.39100
O924        O  0.55670625  0.30945536  0.33506072    -1.24540
O925        O  0.42804503  0.11285811  0.38669236    -0.86790
O926        O  0.43730642  0.15720436  0.32647667    -0.83840
C927        C  0.47373274  0.17670989  0.32329437     0.96670
O928        O  0.49335532  0.15832826  0.32014139    -0.83870
O929        O  0.50414808  0.08349572  0.31697826    -0.86510
C930        C  0.49667075  0.05689799  0.34081129     1.01200
O931        O  0.47300152  0.05214897  0.36518547    -0.79280
O932        O  0.40803156  0.05043977  0.39736649    -0.79460
C933        C  0.41488668  0.08437581  0.40808268     1.01150
O934        O  0.35803582  0.05275055  0.35626000    -0.86790
O935        O  0.37821779  0.09200082  0.29255805    -0.83850
C936        C  0.39887653  0.10590876  0.26479942     0.96690
O937        O  0.43597980  0.11965825  0.26525074    -0.83880
O938        O  0.44548422  0.05675621  0.26551027    -0.86480
C939        C  0.43386892  0.35458564  0.27261278     1.01160
O940        O  0.42828827  0.34214137  0.30444611    -0.79300
O941        O  0.36794113  0.34220866  0.33129350    -0.79450
C942        C  0.34627772  0.35561266  0.33822821     1.01130
Cr943      Cr  0.40274573  0.10188919  0.33996856     1.93740
Cr944      Cr  0.46827296  0.10368874  0.29558773     1.93210
Cr945      Cr  0.42046722  0.03407661  0.34873689     1.39100
O946        O  0.43135093  0.08009648  0.32797061    -1.24660
O947        O  0.35732803  0.11280898  0.10964515    -0.86790
O948        O  0.39239438  0.15716520  0.16986156    -0.83840
C949        C  0.70881444  0.17667753  0.17306569     0.96670
O950        O  0.67081220  0.15830758  0.17621094    -0.83870
O951        O  0.58518560  0.08348007  0.17937732    -0.86510
C952        C  0.56606359  0.05687880  0.15554836     1.01200
O953        O  0.58498280  0.05212960  0.13117134    -0.79280
O954        O  0.64824212  0.05039286  0.09898639    -0.79460
C955        C  0.67533823  0.08431839  0.08826353     1.01150
O956        O  0.36720886  0.05270269  0.14010341    -0.86790
O957        O  0.38628084  0.09197129  0.20379901    -0.83850
C958        C  0.37954084  0.10589811  0.23155134     0.96690
O959        O  0.68951845  0.11964615  0.23109570    -0.83880
O960        O  0.61712208  0.05675223  0.23084453    -0.86480
C961        C  0.59322621  0.35458524  0.22374868     1.01160
O962        O  0.58635636  0.34213257  0.19191822    -0.79300
O963        O  0.64676098  0.34217282  0.16507264    -0.79450
C964        C  0.34849243  0.02223389  0.15813651     1.01130
Cr965      Cr  0.37164358  0.10184918  0.15638109     1.93740
Cr966      Cr  0.64125630  0.10367301  0.20076156     1.93210
Cr967      Cr  0.61944255  0.03404964  0.14762146     1.39100
O968        O  0.65458164  0.08007182  0.16837868    -1.24540
O969        O  0.45799075  0.34548574  0.22004453    -0.86790
O970        O  0.50234452  0.04721997  0.15982599    -0.83840
C971        C  0.52185502  0.36363719  0.15662582     0.96670
O972        O  0.50348249  0.32563243  0.15348027    -0.83870
O973        O  0.42866193  0.24000492  0.15032138    -0.86510
C974        C  0.40205848  0.22088474  0.17414750     1.01200
O975        O  0.39731283  0.23980509  0.19852579    -0.79280
O976        O  0.39557842  0.30306747  0.23070879    -0.79460
C977        C  0.42950356  0.33016402  0.24142848     1.01150
O978        O  0.39788538  0.02203480  0.18958891    -0.86790
O979        O  0.43714674  0.04109961  0.12589256    -0.83850
C980        C  0.45106671  0.03435296  0.09813981     0.96690
O981        O  0.46481690  0.34433229  0.09859598    -0.83880
O982        O  0.40192411  0.27192777  0.09885101    -0.86480
C983        C  0.69975767  0.24803391  0.10594991     1.01160
O984        O  0.68730860  0.24117132  0.13778197    -0.79300
O985        O  0.68735415  0.30158067  0.16462716    -0.79450
C986        C  0.36741433  0.33664745  0.17156143     1.01130
Cr987      Cr  0.44702886  0.02646693  0.17330922     1.93740
Cr988      Cr  0.44884782  0.29607204  0.12893221     1.93210
Cr989      Cr  0.37923097  0.27426281  0.18207625     1.39100
O990        O  0.42524951  0.30940131  0.16131445    -1.24540
O991        O  0.45801486  0.08283669  0.94299960    -0.86790
O992        O  0.50235977  0.09209736  0.00321338    -0.83840
C993        C  0.52186914  0.12852562  0.00639568     0.96670
O994        O  0.50349242  0.14815417  0.00954272    -0.83870
O995        O  0.42866616  0.15895594  0.01270066    -0.86510
C996        C  0.40206072  0.15146850  0.98887560     1.01200
O997        O  0.39731237  0.12779886  0.96450152    -0.79280
O998        O  0.39560031  0.06282310  0.93232644    -0.79460
C999        C  0.42953402  0.06967665  0.92161051     1.01150
O1000       O  0.39790777  0.01282692  0.97343631    -0.86790
O1001       O  0.43715763  0.03301588  0.03713685    -0.83850
C1002       C  0.45106991  0.05368127  0.06489133     0.96690
O1003       O  0.46481980  0.09078634  0.06443572    -0.83880
O1004       O  0.40192595  0.10029946  0.06417718    -0.86480
C1005       C  0.69975604  0.08867972  0.05707767     1.01160
O1006       O  0.68730830  0.08308942  0.02524577    -0.79300
O1007       O  0.68737132  0.02273763  0.99840253    -0.79450
C1008       C  0.36743810  0.33440413  0.99146774     1.01130
Cr1009     Cr  0.44704573  0.05753895  0.98972432     1.93740
Cr1010     Cr  0.44885430  0.12307917  0.03409618     1.93210
Cr1011     Cr  0.37923970  0.07526411  0.98095472     1.39100
O1012       O  0.42525789  0.08614954  0.00171928    -1.24540
O1013       O  0.35734062  0.21481485  0.05337970    -0.86790
O1014       O  0.39241051  0.20552955  0.99316478    -0.83840
C1015       C  0.70882349  0.16910485  0.98994818     0.96670
O1016       O  0.67082239  0.14948004  0.98678442    -0.83870
O1017       O  0.58520117  0.13870846  0.98360553    -0.86510
C1018       C  0.56608094  0.14616521  0.00745566     1.01200
O1019       O  0.58500457  0.16981954  0.03183986    -0.79280
O1020       O  0.64825385  0.23480912  0.06403830    -0.79460
C1021       C  0.67534627  0.22797735  0.07476224     1.01150
O1022       O  0.36723693  0.28481174  0.02292690    -0.86790
O1023       O  0.38633058  0.26463491  0.95923205    -0.83850
C1024       C  0.37959609  0.24398175  0.93147111     0.96690
O1025       O  0.68956707  0.20687777  0.93191598    -0.83880
O1026       O  0.61718900  0.19741468  0.93216796    -0.86480
C1027       C  0.59328734  0.20900945  0.93927114     1.01160
O1028       O  0.58638963  0.21454774  0.97110566    -0.79300
O1029       O  0.64678688  0.27489678  0.99796497    -0.79450
C1030       C  0.34852030  0.29656374  0.00489410     1.01130
Cr1031     Cr  0.37167142  0.24010212  0.00664654     1.93740
Cr1032     Cr  0.64128926  0.17458571  0.96223926     1.93210
Cr1033     Cr  0.61946676  0.22236544  0.01540235     1.39100
O1034       O  0.65461143  0.21149235  0.99464014    -1.24540
O1035       O  0.42812231  0.28559185  0.77632017    -0.86790
O1036       O  0.43740303  0.25051167  0.83653148    -0.83840
C1037       C  0.47382645  0.26743583  0.83974667     0.96670
O1038       O  0.49344616  0.97210511  0.84291462    -0.83870
O1039       O  0.50421436  0.05772491  0.84609585    -0.86510
C1040       C  0.49676366  0.07684540  0.82224094     1.01200
O1041       O  0.47310877  0.05792101  0.79785841    -0.79280
O1042       O  0.40812479  0.99467775  0.76566302    -0.79460
C1043       C  0.41496387  0.96759023  0.75493775     1.01150
O1044       O  0.35812180  0.27568781  0.80677077    -0.86790
O1045       O  0.37829399  0.25658764  0.87046219    -0.83850
C1046       C  0.39894270  0.26332466  0.89822536     0.96690
O1047       O  0.43604505  0.28668608  0.89778238    -0.83880
O1048       O  0.44550639  0.02573446  0.89753110    -0.86480
C1049       C  0.43391663  0.04964071  0.89042612     1.01160
O1050       O  0.42838520  0.05654253  0.85859133    -0.79300
O1051       O  0.36803710  0.99614183  0.83173338    -0.79450
C1052       C  0.34637031  0.29440652  0.82480321     1.01130
Cr1053     Cr  0.40283001  0.27125207  0.82305020     1.93740
Cr1054     Cr  0.46833781  0.00163487  0.86746129     1.93210
Cr1055     Cr  0.42056605  0.02346233  0.81429707     1.39100
O1056       O  0.43143567  0.98831375  0.83505951    -1.24540
O1057       O  0.56009625  0.51824360  0.88669443    -0.86790
O1058       O  0.55083487  0.47389784  0.82647883    -0.83840
C1059       C  0.51440877  0.45439228  0.82329507     0.96670
O1060       O  0.49478602  0.47277371  0.82014251    -0.83870
O1061       O  0.48399340  0.54760611  0.81697970    -0.86510
C1062       C  0.49147032  0.57420365  0.84081229     1.01200
O1063       O  0.51513896  0.57895238  0.86518660    -0.79280
O1064       O  0.58010913  0.58066176  0.89736765    -0.79460
C1065       C  0.57325455  0.54672586  0.90808425     1.01150
O1066       O  0.63010550  0.57835140  0.85626049    -0.86790
O1067       O  0.60992404  0.53910159  0.79255924    -0.83850
C1068       C  0.58926565  0.52519392  0.76480090     0.96690
O1069       O  0.55216249  0.51144462  0.76525247    -0.83880
O1070       O  0.54265859  0.57434662  0.76551174    -0.86480
C1071       C  0.55427326  0.60985023  0.77261397     1.01160
O1072       O  0.55985323  0.62229411  0.80444712    -0.79300
O1073       O  0.62020028  0.62222691  0.83129406    -0.79450
C1074       C  0.64186372  0.60882286  0.83822841     1.01130
Cr1075     Cr  0.58539565  0.52921281  0.83997008     1.93740
Cr1076     Cr  0.51986906  0.52741374  0.79558931     1.93210
Cr1077     Cr  0.56767378  0.59702515  0.84873795     1.39100
O1078       O  0.55679042  0.55100546  0.82797215    -1.24540
O1079       O  0.63081393  0.51829327  0.60964658    -0.86790
O1080       O  0.59574745  0.47393721  0.66986401    -0.83840
C1081       C  0.27932743  0.45442483  0.67306711     0.96670
O1082       O  0.31732963  0.47279480  0.67621208    -0.83870
O1083       O  0.40295608  0.54762162  0.67937767    -0.86510
C1084       C  0.42207875  0.57422381  0.65554907     1.01200
O1085       O  0.40316030  0.57897333  0.63117168    -0.79280
O1086       O  0.33990041  0.58070923  0.59898621    -0.79460
C1087       C  0.31280381  0.54678378  0.58826429     1.01150
O1088       O  0.62093334  0.57839974  0.64010383    -0.86790
O1089       O  0.60186163  0.53913159  0.70380040    -0.83850
C1090       C  0.60860141  0.52520459  0.73155278     0.96690
O1091       O  0.29862327  0.51145598  0.73109697    -0.83880
O1092       O  0.37102008  0.57434999  0.73084462    -0.86480
C1093       C  0.39491568  0.60985055  0.72374813     1.01160
O1094       O  0.40178523  0.62230345  0.69191742    -0.79300
O1095       O  0.34138109  0.62226303  0.66507163    -0.79450
C1096       C  0.63964966  0.60886857  0.65813619     1.01130
Cr1097     Cr  0.61649860  0.52925335  0.65638253     1.93740
Cr1098     Cr  0.34688549  0.52742913  0.70076229     1.93210
Cr1099     Cr  0.36869977  0.59705287  0.64762104     1.39100
O1100       O  0.33356054  0.55103063  0.66837925    -1.24540
O1101       O  0.53015147  0.61895039  0.72004628    -0.86790
O1102       O  0.48579754  0.58388281  0.65982887    -0.83840
C1103       C  0.46628717  0.60079891  0.65662735     0.96670
O1104       O  0.48465975  0.30547036  0.65348147    -0.83870
O1105       O  0.55948119  0.39109785  0.65032175    -0.86510
C1106       C  0.58608356  0.41021747  0.67414829     1.01200
O1107       O  0.59082876  0.39129646  0.69852637    -0.79280
O1108       O  0.59256393  0.32803458  0.73070904    -0.79460
C1109       C  0.55863867  0.30093855  0.74142958     1.01150
O1110       O  0.59025667  0.60906742  0.68958964    -0.86790
O1111       O  0.55099479  0.59000210  0.62589441    -0.83850
C1112       C  0.53707504  0.59674890  0.59814169     0.96690
O1113       O  0.52332556  0.62010353  0.59859763    -0.83880
O1114       O  0.58621849  0.35917395  0.59885154    -0.86480
C1115       C  0.62171795  0.38306820  0.60594986     1.01160
O1116       O  0.30083332  0.38993144  0.63778167    -0.79300
O1117       O  0.63412127  0.32952176  0.66462670    -0.79450
C1118       C  0.62072765  0.62778820  0.67156131     1.01130
Cr1119     Cr  0.54111307  0.60463534  0.67331107     1.93740
Cr1120     Cr  0.53929477  0.33503050  0.62893317     1.93210
Cr1121     Cr  0.60891104  0.35683937  0.68207628     1.39100
O1122       O  0.56289259  0.32170093  0.66131539    -1.24540
O1123       O  0.53012708  0.54826571  0.44300206    -0.86790
O1124       O  0.48578205  0.53900497  0.50321624    -0.83840
C1125       C  0.46627278  0.50257648  0.50639708     0.96670
O1126       O  0.48464977  0.48294817  0.50954458    -0.83870
O1127       O  0.55947618  0.47214639  0.51270275    -0.86510
C1128       C  0.58608168  0.47963404  0.48887716     1.01200
O1129       O  0.59083005  0.50330393  0.46450296    -0.79280
O1130       O  0.59254165  0.56827951  0.43232757    -0.79460
C1131       C  0.55860784  0.56142574  0.42161232     1.01150
O1132       O  0.59023412  0.61827541  0.47343703    -0.86790
O1133       O  0.55098421  0.59808613  0.53713846    -0.83850
C1134       C  0.53707175  0.57742052  0.56489329     0.96690
O1135       O  0.52332159  0.54031534  0.56443796    -0.83880
O1136       O  0.58621572  0.53080212  0.56417878    -0.86480
C1137       C  0.62171917  0.54242236  0.55707873     1.01160
O1138       O  0.30083371  0.54801297  0.52524655    -0.79300
O1139       O  0.63410382  0.60836459  0.49840270    -0.79450
C1140       C  0.62070367  0.63003139  0.49146795     1.01130
Cr1141     Cr  0.54109620  0.57356336  0.48972628     1.93740
Cr1142     Cr  0.53928747  0.50802276  0.53409825     1.93210
Cr1143     Cr  0.60890237  0.55583839  0.48095568     1.39100
O1144       O  0.56288415  0.54495280  0.50172105    -1.24540
O1145       O  0.63080176  0.41628715  0.55337940    -0.86790
O1146       O  0.59573143  0.42557262  0.49316550    -0.83840
C1147       C  0.27931870  0.46199740  0.48994892     0.96670
O1148       O  0.31731985  0.48162201  0.48678435    -0.83870
O1149       O  0.40294132  0.49239276  0.48360426    -0.86510
C1150       C  0.42206075  0.48493618  0.50745534     1.01200
O1151       O  0.40313615  0.46128112  0.53183923    -0.79280
O1152       O  0.33988743  0.39629149  0.56403740    -0.79460
C1153       C  0.31279589  0.40312438  0.57476179     1.01150
O1154       O  0.62090469  0.34628990  0.52292716    -0.86790
O1155       O  0.60181055  0.36646720  0.45923271    -0.83850
C1156       C  0.60854522  0.38712059  0.43147149     0.96690
O1157       O  0.29857479  0.42422461  0.43191587    -0.83880
O1158       O  0.37095255  0.43368713  0.43216698    -0.86480
C1159       C  0.39485430  0.42209249  0.43926987     1.01160
O1160       O  0.40175249  0.41655473  0.47110434    -0.79300
O1161       O  0.34135479  0.35620514  0.49796404    -0.79450
C1162       C  0.63962132  0.66787152  0.50489384     1.01130
Cr1163     Cr  0.61647024  0.39099973  0.50664688     1.93740
Cr1164     Cr  0.34685282  0.45651631  0.46223855     1.93210
Cr1165     Cr  0.36867471  0.40873591  0.51540132     1.39100
O1166       O  0.33353022  0.41960927  0.49463954    -1.24540
O1167       O  0.56001967  0.67884389  0.27632118    -0.86790
O1168       O  0.55073853  0.38059058  0.33653190    -0.83840
C1169       C  0.51431501  0.69699945  0.33974674     0.96670
O1170       O  0.49469548  0.65899679  0.34291547    -0.83870
O1171       O  0.48392788  0.57337669  0.34609777    -0.86510
C1172       C  0.49137845  0.55425701  0.32224190     1.01200
O1173       O  0.51503396  0.57318240  0.29785958    -0.79280
O1174       O  0.58001803  0.63642534  0.26566431    -0.79460
C1175       C  0.57317825  0.66351232  0.25493878     1.01150
O1176       O  0.63002014  0.35541478  0.30677104    -0.86790
O1177       O  0.60984750  0.37451497  0.37046240    -0.83850
C1178       C  0.58919857  0.36777775  0.39822590     0.96690
O1179       O  0.55209616  0.67774930  0.39778339    -0.83880
O1180       O  0.54263522  0.60536773  0.39753264    -0.86480
C1181       C  0.55422492  0.58146146  0.39042775     1.01160
O1182       O  0.55975596  0.57455941  0.35859291    -0.79300
O1183       O  0.62010452  0.63496057  0.33173449    -0.79450
C1184       C  0.64177135  0.67002924  0.32480368     1.01130
Cr1185     Cr  0.58531182  0.35985046  0.32305071     1.93740
Cr1186     Cr  0.51980371  0.62946707  0.36746272     1.93210
Cr1187     Cr  0.56757607  0.60764035  0.31429844     1.39100
O1188       O  0.55670625  0.64278870  0.33506072    -1.24540
O1189       O  0.42804503  0.44619144  0.38669236    -0.86790
O1190       O  0.43730642  0.49053769  0.32647667    -0.83840
C1191       C  0.47373274  0.51004322  0.32329437     0.96670
O1192       O  0.49335532  0.49166159  0.32014139    -0.83870
O1193       O  0.50414808  0.41682905  0.31697826    -0.86510
C1194       C  0.49667075  0.39023133  0.34081129     1.01200
O1195       O  0.47300152  0.38548230  0.36518547    -0.79280
O1196       O  0.40803156  0.38377311  0.39736649    -0.79460
C1197       C  0.41488668  0.41770914  0.40808268     1.01150
O1198       O  0.35803582  0.38608388  0.35626000    -0.86790
O1199       O  0.37821779  0.42533415  0.29255805    -0.83850
C1200       C  0.39887653  0.43924210  0.26479942     0.96690
O1201       O  0.43597980  0.45299158  0.26525074    -0.83880
O1202       O  0.44548422  0.39008954  0.26551027    -0.86480
C1203       C  0.43386892  0.68791897  0.27261278     1.01160
O1204       O  0.42828827  0.67547470  0.30444611    -0.79300
O1205       O  0.36794113  0.67554200  0.33129350    -0.79450
C1206       C  0.34627772  0.68894599  0.33822821     1.01130
Cr1207     Cr  0.40274573  0.43522253  0.33996856     1.93740
Cr1208     Cr  0.46827296  0.43702207  0.29558773     1.93210
Cr1209     Cr  0.42046722  0.36740995  0.34873689     1.39100
O1210       O  0.43135093  0.41342982  0.32797061    -1.24660
O1211       O  0.35732802  0.44614231  0.10964515    -0.86790
O1212       O  0.39239438  0.49049853  0.16986156    -0.83840
C1213       C  0.70881444  0.51001086  0.17306569     0.96670
O1214       O  0.67081220  0.49164092  0.17621094    -0.83870
O1215       O  0.58518560  0.41681340  0.17937732    -0.86510
C1216       C  0.56606359  0.39021213  0.15554836     1.01200
O1217       O  0.58498280  0.38546293  0.13117134    -0.79280
O1218       O  0.64824212  0.38372619  0.09898639    -0.79460
C1219       C  0.67533823  0.41765172  0.08826353     1.01150
O1220       O  0.36720886  0.38603602  0.14010341    -0.86790
O1221       O  0.38628084  0.42530462  0.20379901    -0.83850
C1222       C  0.37954084  0.43923145  0.23155134     0.96690
O1223       O  0.68951845  0.45297949  0.23109570    -0.83880
O1224       O  0.61712208  0.39008556  0.23084453    -0.86480
C1225       C  0.59322621  0.68791858  0.22374868     1.01160
O1226       O  0.58635636  0.67546590  0.19191822    -0.79300
O1227       O  0.64676098  0.67550616  0.16507264    -0.79450
C1228       C  0.34849243  0.35556722  0.15813651     1.01130
Cr1229     Cr  0.37164358  0.43518251  0.15638109     1.93740
Cr1230     Cr  0.64125630  0.43700634  0.20076156     1.93210
Cr1231     Cr  0.61944255  0.36738297  0.14762146     1.39100
O1232       O  0.65458164  0.41340516  0.16837868    -1.24540
O1233       O  0.45799075  0.67881907  0.22004453    -0.86790
O1234       O  0.50234452  0.38055330  0.15982599    -0.83840
C1235       C  0.52185502  0.69697053  0.15662582     0.96670
O1236       O  0.50348249  0.65896576  0.15348027    -0.83870
O1237       O  0.42866193  0.57333826  0.15032138    -0.86510
C1238       C  0.40205848  0.55421807  0.17414750     1.01200
O1239       O  0.39731283  0.57313842  0.19852579    -0.79280
O1240       O  0.39557842  0.63640080  0.23070879    -0.79460
C1241       C  0.42950356  0.66349735  0.24142848     1.01150
O1242       O  0.39788537  0.35536813  0.18958891    -0.86790
O1243       O  0.43714674  0.37443294  0.12589256    -0.83850
C1244       C  0.45106671  0.36768630  0.09813982     0.96690
O1245       O  0.46481690  0.67766562  0.09859598    -0.83880
O1246       O  0.40192411  0.60526110  0.09885101    -0.86480
C1247       C  0.69975767  0.58136724  0.10594991     1.01160
O1248       O  0.68730860  0.57450466  0.13778197    -0.79300
O1249       O  0.68735415  0.63491400  0.16462716    -0.79450
C1250       C  0.36741433  0.66998078  0.17156143     1.01130
Cr1251     Cr  0.44702886  0.35980026  0.17330922     1.93740
Cr1252     Cr  0.44884782  0.62940538  0.12893221     1.93210
Cr1253     Cr  0.37923097  0.60759614  0.18207625     1.39100
O1254       O  0.42524951  0.64273464  0.16131445    -1.24540
O1255       O  0.45801486  0.41617002  0.94299960    -0.86790
O1256       O  0.50235977  0.42543069  0.00321338    -0.83840
C1257       C  0.52186914  0.46185895  0.00639568     0.96670
O1258       O  0.50349242  0.48148750  0.00954272    -0.83870
O1259       O  0.42866616  0.49228927  0.01270066    -0.86510
C1260       C  0.40206072  0.48480184  0.98887560     1.01200
O1261       O  0.39731237  0.46113219  0.96450152    -0.79280
O1262       O  0.39560031  0.39615643  0.93232644    -0.79460
C1263       C  0.42953402  0.40300998  0.92161052     1.01150
O1264       O  0.39790777  0.34616025  0.97343631    -0.86790
O1265       O  0.43715763  0.36634921  0.03713685    -0.83850
C1266       C  0.45106991  0.38701461  0.06489133     0.96690
O1267       O  0.46481980  0.42411968  0.06443572    -0.83880
O1268       O  0.40192595  0.43363279  0.06417718    -0.86480
C1269       C  0.69975604  0.42201305  0.05707767     1.01160
O1270       O  0.68730830  0.41642276  0.02524577    -0.79300
O1271       O  0.68737132  0.35607097  0.99840253    -0.79450
C1272       C  0.36743810  0.66773746  0.99146774     1.01130
Cr1273     Cr  0.44704573  0.39087229  0.98972432     1.93740
Cr1274     Cr  0.44885430  0.45641251  0.03409618     1.93210
Cr1275     Cr  0.37923970  0.40859744  0.98095472     1.39100
O1276       O  0.42525789  0.41948287  0.00171928    -1.24540
O1277       O  0.35734062  0.54814818  0.05337970    -0.86790
O1278       O  0.39241051  0.53886288  0.99316478    -0.83840
C1279       C  0.70882349  0.50243818  0.98994818     0.96670
O1280       O  0.67082239  0.48281338  0.98678442    -0.83870
O1281       O  0.58520117  0.47204179  0.98360553    -0.86510
C1282       C  0.56608094  0.47949855  0.00745566     1.01200
O1283       O  0.58500457  0.50315287  0.03183986    -0.79280
O1284       O  0.64825385  0.56814245  0.06403830    -0.79460
C1285       C  0.67534627  0.56131068  0.07476224     1.01150
O1286       O  0.36723693  0.61814508  0.02292690    -0.86790
O1287       O  0.38633058  0.59796824  0.95923205    -0.83850
C1288       C  0.37959609  0.57731508  0.93147111     0.96690
O1289       O  0.68956707  0.54021110  0.93191598    -0.83880
O1290       O  0.61718900  0.53074802  0.93216796    -0.86480
C1291       C  0.59328734  0.54234278  0.93927114     1.01160
O1292       O  0.58638963  0.54788107  0.97110566    -0.79300
O1293       O  0.64678688  0.60823011  0.99796497    -0.79450
C1294       C  0.34852030  0.62989707  0.00489410     1.01130
Cr1295     Cr  0.37167142  0.57343545  0.00664654     1.93740
Cr1296     Cr  0.64128926  0.50791905  0.96223926     1.93210
Cr1297     Cr  0.61946676  0.55569878  0.01540234     1.39100
O1298       O  0.65461143  0.54482569  0.99464014    -1.24540
O1299       O  0.42812231  0.61892519  0.77632016    -0.86790
O1300       O  0.43740303  0.58384501  0.83653147    -0.83840
C1301       C  0.47382645  0.60076916  0.83974667     0.96670
O1302       O  0.49344617  0.30543844  0.84291462    -0.83870
O1303       O  0.50421436  0.39105824  0.84609585    -0.86510
C1304       C  0.49676366  0.41017874  0.82224094     1.01200
O1305       O  0.47310877  0.39125434  0.79785841    -0.79280
O1306       O  0.40812479  0.32801109  0.76566302    -0.79460
C1307       C  0.41496387  0.30092356  0.75493775     1.01150
O1308       O  0.35812180  0.60902115  0.80677077    -0.86790
O1309       O  0.37829399  0.58992097  0.87046219    -0.83850
C1310       C  0.39894270  0.59665799  0.89822536     0.96690
O1311       O  0.43604505  0.62001941  0.89778238    -0.83880
O1312       O  0.44550639  0.35906779  0.89753110    -0.86480
C1313       C  0.43391663  0.38297404  0.89042612     1.01160
O1314       O  0.42838520  0.38987587  0.85859133    -0.79300
O1315       O  0.36803710  0.32947516  0.83173338    -0.79450
C1316       C  0.34637031  0.62773986  0.82480321     1.01130
Cr1317     Cr  0.40283001  0.60458540  0.82305020     1.93740
Cr1318     Cr  0.46833782  0.33496820  0.86746129     1.93210
Cr1319     Cr  0.42056605  0.35679567  0.81429707     1.39100
O1320       O  0.43143567  0.32164708  0.83505951    -1.24540
O1321       O  0.56009625  0.85157694  0.88669443    -0.86790
O1322       O  0.55083487  0.80723118  0.82647883    -0.83840
C1323       C  0.51440877  0.78772561  0.82329507     0.96670
O1324       O  0.49478602  0.80610705  0.82014251    -0.83870
O1325       O  0.48399340  0.88093944  0.81697970    -0.86510
C1326       C  0.49147032  0.90753698  0.84081229     1.01200
O1327       O  0.51513896  0.91228571  0.86518660    -0.79280
O1328       O  0.58010913  0.91399510  0.89736765    -0.79460
C1329       C  0.57325455  0.88005919  0.90808425     1.01150
O1330       O  0.63010550  0.91168474  0.85626049    -0.86790
O1331       O  0.60992404  0.87243492  0.79255924    -0.83850
C1332       C  0.58926565  0.85852726  0.76480090     0.96690
O1333       O  0.55216249  0.84477795  0.76525247    -0.83880
O1334       O  0.54265859  0.90767995  0.76551174    -0.86480
C1335       C  0.55427326  0.94318356  0.77261397     1.01160
O1336       O  0.55985323  0.95562744  0.80444712    -0.79300
O1337       O  0.62020028  0.95556024  0.83129406    -0.79450
C1338       C  0.64186372  0.94215619  0.83822841     1.01130
Cr1339     Cr  0.58539565  0.86254615  0.83997008     1.93740
Cr1340     Cr  0.51986906  0.86074707  0.79558931     1.93210
Cr1341     Cr  0.56767378  0.93035848  0.84873795     1.39100
O1342       O  0.55679042  0.88433880  0.82797215    -1.24540
O1343       O  0.63081393  0.85162660  0.60964658    -0.86790
O1344       O  0.59574745  0.80727055  0.66986401    -0.83840
C1345       C  0.27932743  0.78775816  0.67306711     0.96670
O1346       O  0.31732963  0.80612813  0.67621208    -0.83870
O1347       O  0.40295608  0.88095495  0.67937767    -0.86510
C1348       C  0.42207875  0.90755714  0.65554907     1.01200
O1349       O  0.40316030  0.91230666  0.63117168    -0.79280
O1350       O  0.33990041  0.91404256  0.59898621    -0.79460
C1351       C  0.31280381  0.88011711  0.58826429     1.01150
O1352       O  0.62093334  0.91173307  0.64010383    -0.86790
O1353       O  0.60186163  0.87246492  0.70380040    -0.83850
C1354       C  0.60860141  0.85853793  0.73155278     0.96690
O1355       O  0.29862327  0.84478932  0.73109697    -0.83880
O1356       O  0.37102008  0.90768333  0.73084462    -0.86480
C1357       C  0.39491568  0.94318388  0.72374813     1.01160
O1358       O  0.40178523  0.95563679  0.69191742    -0.79300
O1359       O  0.34138109  0.95559636  0.66507163    -0.79450
C1360       C  0.63964966  0.94220190  0.65813619     1.01130
Cr1361     Cr  0.61649860  0.86258668  0.65638253     1.93740
Cr1362     Cr  0.34688549  0.86076246  0.70076229     1.93210
Cr1363     Cr  0.36869977  0.93038620  0.64762104     1.39100
O1364       O  0.33356054  0.88436397  0.66837925    -1.24540
O1365       O  0.53015147  0.95228372  0.72004628    -0.86790
O1366       O  0.48579754  0.91721614  0.65982887    -0.83840
C1367       C  0.46628717  0.93413224  0.65662735     0.96670
O1368       O  0.48465974  0.63880369  0.65348147    -0.83870
O1369       O  0.55948119  0.72443118  0.65032175    -0.86510
C1370       C  0.58608356  0.74355081  0.67414829     1.01200
O1371       O  0.59082876  0.72462979  0.69852636    -0.79280
O1372       O  0.59256393  0.66136791  0.73070904    -0.79460
C1373       C  0.55863867  0.63427188  0.74142958     1.01150
O1374       O  0.59025667  0.94240075  0.68958964    -0.86790
O1375       O  0.55099479  0.92333543  0.62589441    -0.83850
C1376       C  0.53707504  0.93008223  0.59814169     0.96690
O1377       O  0.52332556  0.95343687  0.59859763    -0.83880
O1378       O  0.58621849  0.69250729  0.59885154    -0.86480
C1379       C  0.62171795  0.71640153  0.60594986     1.01160
O1380       O  0.30083332  0.72326477  0.63778167    -0.79300
O1381       O  0.63412127  0.66285509  0.66462670    -0.79450
C1382       C  0.62072765  0.96112153  0.67156131     1.01130
Cr1383     Cr  0.54111307  0.93796867  0.67331107     1.93740
Cr1384     Cr  0.53929477  0.66836383  0.62893317     1.93210
Cr1385     Cr  0.60891104  0.69017270  0.68207628     1.39100
O1386       O  0.56289259  0.65503426  0.66131539    -1.24540
O1387       O  0.53012708  0.88159904  0.44300206    -0.86790
O1388       O  0.48578205  0.87233830  0.50321624    -0.83840
C1389       C  0.46627278  0.83590982  0.50639708     0.96670
O1390       O  0.48464977  0.81628151  0.50954458    -0.83870
O1391       O  0.55947618  0.80547973  0.51270275    -0.86510
C1392       C  0.58608168  0.81296737  0.48887716     1.01200
O1393       O  0.59083005  0.83663726  0.46450296    -0.79280
O1394       O  0.59254165  0.90161284  0.43232757    -0.79460
C1395       C  0.55860784  0.89475907  0.42161232     1.01150
O1396       O  0.59023412  0.95160875  0.47343703    -0.86790
O1397       O  0.55098421  0.93141947  0.53713846    -0.83850
C1398       C  0.53707175  0.91075386  0.56489329     0.96690
O1399       O  0.52332159  0.87364868  0.56443796    -0.83880
O1400       O  0.58621572  0.86413545  0.56417878    -0.86480
C1401       C  0.62171917  0.87575569  0.55707873     1.01160
O1402       O  0.30083371  0.88134630  0.52524655    -0.79300
O1403       O  0.63410382  0.94169793  0.49840270    -0.79450
C1404       C  0.62070367  0.96336472  0.49146795     1.01130
Cr1405     Cr  0.54109620  0.90689669  0.48972628     1.93740
Cr1406     Cr  0.53928747  0.84135609  0.53409825     1.93210
Cr1407     Cr  0.60890237  0.88917172  0.48095568     1.39100
O1408       O  0.56288415  0.87828613  0.50172105    -1.24540
O1409       O  0.63080176  0.74962048  0.55337940    -0.86790
O1410       O  0.59573143  0.75890596  0.49316550    -0.83840
C1411       C  0.27931870  0.79533073  0.48994892     0.96670
O1412       O  0.31731985  0.81495534  0.48678435    -0.83870
O1413       O  0.40294132  0.82572609  0.48360426    -0.86510
C1414       C  0.42206075  0.81826951  0.50745534     1.01200
O1415       O  0.40313615  0.79461446  0.53183923    -0.79280
O1416       O  0.33988743  0.72962482  0.56403740    -0.79460
C1417       C  0.31279589  0.73645771  0.57476179     1.01150
O1418       O  0.62090469  0.67962324  0.52292716    -0.86790
O1419       O  0.60181055  0.69980053  0.45923271    -0.83850
C1420       C  0.60854522  0.72045393  0.43147149     0.96690
O1421       O  0.29857479  0.75755795  0.43191587    -0.83880
O1422       O  0.37095255  0.76702046  0.43216698    -0.86480
C1423       C  0.39485430  0.75542583  0.43926987     1.01160
O1424       O  0.40175249  0.74988806  0.47110434    -0.79300
O1425       O  0.34135479  0.68953847  0.49796404    -0.79450
C1426       C  0.63962132  0.00120485  0.50489384     1.01130
Cr1427     Cr  0.61647024  0.72433306  0.50664688     1.93740
Cr1428     Cr  0.34685282  0.78984965  0.46223855     1.93210
Cr1429     Cr  0.36867471  0.74206924  0.51540132     1.39100
O1430       O  0.33353022  0.75294260  0.49463954    -1.24540
O1431       O  0.56001967  0.01217722  0.27632118    -0.86790
O1432       O  0.55073853  0.71392391  0.33653190    -0.83840
C1433       C  0.51431501  0.03033279  0.33974674     0.96670
O1434       O  0.49469548  0.99233013  0.34291547    -0.83870
O1435       O  0.48392788  0.90671003  0.34609777    -0.86510
C1436       C  0.49137845  0.88759034  0.32224190     1.01200
O1437       O  0.51503396  0.90651573  0.29785958    -0.79280
O1438       O  0.58001803  0.96975867  0.26566431    -0.79460
C1439       C  0.57317826  0.99684565  0.25493878     1.01150
O1440       O  0.63002014  0.68874811  0.30677104    -0.86790
O1441       O  0.60984750  0.70784831  0.37046240    -0.83850
C1442       C  0.58919857  0.70111109  0.39822590     0.96690
O1443       O  0.55209616  0.01108263  0.39778339    -0.83880
O1444       O  0.54263522  0.93870107  0.39753264    -0.86480
C1445       C  0.55422492  0.91479479  0.39042775     1.01160
O1446       O  0.55975596  0.90789274  0.35859292    -0.79300
O1447       O  0.62010452  0.96829391  0.33173449    -0.79450
C1448       C  0.64177135  0.00336257  0.32480368     1.01130
Cr1449     Cr  0.58531182  0.69318380  0.32305071     1.93740
Cr1450     Cr  0.51980371  0.96280041  0.36746272     1.93210
Cr1451     Cr  0.56757607  0.94097368  0.31429844     1.39100
O1452       O  0.55670626  0.97612203  0.33506072    -1.24540
O1453       O  0.42804503  0.77952478  0.38669236    -0.86790
O1454       O  0.43730642  0.82387103  0.32647666    -0.83840
C1455       C  0.47373274  0.84337656  0.32329437     0.96670
O1456       O  0.49335532  0.82499493  0.32014139    -0.83870
O1457       O  0.50414808  0.75016239  0.31697826    -0.86510
C1458       C  0.49667075  0.72356466  0.34081129     1.01200
O1459       O  0.47300152  0.71881564  0.36518547    -0.79280
O1460       O  0.40803156  0.71710644  0.39736649    -0.79460
C1461       C  0.41488668  0.75104248  0.40808268     1.01150
O1462       O  0.35803582  0.71941722  0.35626000    -0.86790
O1463       O  0.37821779  0.75866749  0.29255805    -0.83850
C1464       C  0.39887653  0.77257543  0.26479942     0.96690
O1465       O  0.43597980  0.78632491  0.26525074    -0.83880
O1466       O  0.44548422  0.72342288  0.26551027    -0.86480
C1467       C  0.43386892  0.02125230  0.27261278     1.01160
O1468       O  0.42828828  0.00880804  0.30444611    -0.79300
O1469       O  0.36794113  0.00887533  0.33129350    -0.79450
C1470       C  0.34627772  0.02227933  0.33822821     1.01130
Cr1471     Cr  0.40274573  0.76855586  0.33996856     1.93740
Cr1472     Cr  0.46827296  0.77035541  0.29558773     1.93210
Cr1473     Cr  0.42046722  0.70074328  0.34873689     1.39100
O1474       O  0.43135093  0.74676315  0.32797061    -1.24660
O1475       O  0.35732803  0.77947565  0.10964515    -0.86790
O1476       O  0.39239438  0.82383187  0.16986156    -0.83840
C1477       C  0.70881444  0.84334419  0.17306569     0.96670
O1478       O  0.67081220  0.82497425  0.17621094    -0.83870
O1479       O  0.58518560  0.75014674  0.17937732    -0.86510
C1480       C  0.56606359  0.72354546  0.15554836     1.01200
O1481       O  0.58498280  0.71879627  0.13117134    -0.79280
O1482       O  0.64824212  0.71705952  0.09898639    -0.79460
C1483       C  0.67533823  0.75098505  0.08826353     1.01150
O1484       O  0.36720886  0.71936936  0.14010341    -0.86790
O1485       O  0.38628084  0.75863795  0.20379901    -0.83850
C1486       C  0.37954084  0.77256478  0.23155134     0.96690
O1487       O  0.68951845  0.78631282  0.23109570    -0.83880
O1488       O  0.61712208  0.72341890  0.23084453    -0.86480
C1489       C  0.59322621  0.02125191  0.22374868     1.01160
O1490       O  0.58635636  0.00879924  0.19191822    -0.79300
O1491       O  0.64676098  0.00883949  0.16507265    -0.79450
C1492       C  0.34849243  0.68890055  0.15813651     1.01130
Cr1493     Cr  0.37164358  0.76851585  0.15638109     1.93740
Cr1494     Cr  0.64125630  0.77033967  0.20076156     1.93210
Cr1495     Cr  0.61944255  0.70071630  0.14762146     1.39100
O1496       O  0.65458164  0.74673849  0.16837868    -1.24540
O1497       O  0.45799075  0.01215240  0.22004453    -0.86790
O1498       O  0.50234452  0.71388664  0.15982599    -0.83840
C1499       C  0.52185502  0.03030386  0.15662582     0.96670
O1500       O  0.50348249  0.99229910  0.15348027    -0.83870
O1501       O  0.42866193  0.90667159  0.15032138    -0.86510
C1502       C  0.40205848  0.88755140  0.17414750     1.01200
O1503       O  0.39731283  0.90647175  0.19852579    -0.79280
O1504       O  0.39557842  0.96973413  0.23070879    -0.79460
C1505       C  0.42950356  0.99683068  0.24142848     1.01150
O1506       O  0.39788537  0.68870146  0.18958891    -0.86790
O1507       O  0.43714674  0.70776628  0.12589256    -0.83850
C1508       C  0.45106671  0.70101963  0.09813981     0.96690
O1509       O  0.46481690  0.01099896  0.09859598    -0.83880
O1510       O  0.40192411  0.93859444  0.09885101    -0.86480
C1511       C  0.69975767  0.91470057  0.10594991     1.01160
O1512       O  0.68730860  0.90783799  0.13778197    -0.79300
O1513       O  0.68735415  0.96824733  0.16462716    -0.79450
C1514       C  0.36741433  0.00331412  0.17156143     1.01130
Cr1515     Cr  0.44702886  0.69313359  0.17330922     1.93740
Cr1516     Cr  0.44884782  0.96273871  0.12893221     1.93210
Cr1517     Cr  0.37923097  0.94092948  0.18207625     1.39100
O1518       O  0.42524951  0.97606798  0.16131445    -1.24540
O1519       O  0.45801486  0.74950335  0.94299960    -0.86790
O1520       O  0.50235977  0.75876402  0.00321338    -0.83840
C1521       C  0.52186914  0.79519229  0.00639568     0.96670
O1522       O  0.50349242  0.81482083  0.00954272    -0.83870
O1523       O  0.42866616  0.82562261  0.01270066    -0.86510
C1524       C  0.40206072  0.81813517  0.98887560     1.01200
O1525       O  0.39731237  0.79446553  0.96450152    -0.79280
O1526       O  0.39560031  0.72948977  0.93232644    -0.79460
C1527       C  0.42953402  0.73634332  0.92161051     1.01150
O1528       O  0.39790777  0.67949359  0.97343631    -0.86790
O1529       O  0.43715763  0.69968255  0.03713685    -0.83850
C1530       C  0.45106991  0.72034794  0.06489133     0.96690
O1531       O  0.46481980  0.75745301  0.06443572    -0.83880
O1532       O  0.40192595  0.76696613  0.06417718    -0.86480
C1533       C  0.69975604  0.75534639  0.05707767     1.01160
O1534       O  0.68730830  0.74975609  0.02524577    -0.79300
O1535       O  0.68737132  0.68940430  0.99840253    -0.79450
C1536       C  0.36743810  0.00107080  0.99146774     1.01130
Cr1537     Cr  0.44704573  0.72420562  0.98972432     1.93740
Cr1538     Cr  0.44885430  0.78974584  0.03409618     1.93210
Cr1539     Cr  0.37923970  0.74193078  0.98095472     1.39100
O1540       O  0.42525789  0.75281621  0.00171928    -1.24540
O1541       O  0.35734062  0.88148151  0.05337970    -0.86790
O1542       O  0.39241051  0.87219622  0.99316478    -0.83840
C1543       C  0.70882349  0.83577152  0.98994818     0.96670
O1544       O  0.67082239  0.81614671  0.98678442    -0.83870
O1545       O  0.58520117  0.80537513  0.98360553    -0.86510
C1546       C  0.56608094  0.81283188  0.00745566     1.01200
O1547       O  0.58500457  0.83648621  0.03183986    -0.79280
O1548       O  0.64825385  0.90147578  0.06403830    -0.79460
C1549       C  0.67534627  0.89464401  0.07476224     1.01150
O1550       O  0.36723693  0.95147841  0.02292690    -0.86790
O1551       O  0.38633058  0.93130157  0.95923205    -0.83850
C1552       C  0.37959609  0.91064842  0.93147111     0.96690
O1553       O  0.68956707  0.87354443  0.93191598    -0.83880
O1554       O  0.61718900  0.86408135  0.93216796    -0.86480
C1555       C  0.59328734  0.87567612  0.93927114     1.01160
O1556       O  0.58638963  0.88121440  0.97110566    -0.79300
O1557       O  0.64678688  0.94156345  0.99796497    -0.79450
C1558       C  0.34852030  0.96323040  0.00489410     1.01130
Cr1559     Cr  0.37167142  0.90676879  0.00664654     1.93740
Cr1560     Cr  0.64128926  0.84125238  0.96223926     1.93210
Cr1561     Cr  0.61946676  0.88903211  0.01540235     1.39100
O1562       O  0.65461143  0.87815902  0.99464014    -1.24540
O1563       O  0.42812231  0.95225852  0.77632016    -0.86790
O1564       O  0.43740303  0.91717834  0.83653147    -0.83840
C1565       C  0.47382645  0.93410249  0.83974667     0.96670
O1566       O  0.49344617  0.63877177  0.84291462    -0.83870
O1567       O  0.50421436  0.72439158  0.84609585    -0.86510
C1568       C  0.49676366  0.74351207  0.82224094     1.01200
O1569       O  0.47310877  0.72458767  0.79785841    -0.79280
O1570       O  0.40812479  0.66134442  0.76566302    -0.79460
C1571       C  0.41496387  0.63425689  0.75493775     1.01150
O1572       O  0.35812180  0.94235448  0.80677077    -0.86790
O1573       O  0.37829399  0.92325431  0.87046219    -0.83850
C1574       C  0.39894270  0.92999133  0.89822536     0.96690
O1575       O  0.43604505  0.95335275  0.89778238    -0.83880
O1576       O  0.44550639  0.69240113  0.89753110    -0.86480
C1577       C  0.43391663  0.71630738  0.89042612     1.01160
O1578       O  0.42838520  0.72320920  0.85859133    -0.79300
O1579       O  0.36803710  0.66280850  0.83173338    -0.79450
C1580       C  0.34637031  0.96107319  0.82480321     1.01130
Cr1581     Cr  0.40283001  0.93791873  0.82305020     1.93740
Cr1582     Cr  0.46833781  0.66830154  0.86746129     1.93210
Cr1583     Cr  0.42056605  0.69012900  0.81429707     1.39100
O1584       O  0.43143567  0.65498041  0.83505951    -1.24540
O1585       O  0.89342958  0.18491027  0.88669443    -0.86790
O1586       O  0.88416821  0.14056451  0.82647883    -0.83840
C1587       C  0.84774210  0.12105895  0.82329507     0.96670
O1588       O  0.82811935  0.13944038  0.82014251    -0.83870
O1589       O  0.81732673  0.21427278  0.81697970    -0.86510
C1590       C  0.82480365  0.24087032  0.84081229     1.01200
O1591       O  0.84847229  0.24561905  0.86518660    -0.79280
O1592       O  0.91344246  0.24732843  0.89736765    -0.79460
C1593       C  0.90658789  0.21339253  0.90808425     1.01150
O1594       O  0.96343884  0.24501807  0.85626049    -0.86790
O1595       O  0.94325738  0.20576825  0.79255924    -0.83850
C1596       C  0.92259898  0.19186059  0.76480090     0.96690
O1597       O  0.88549582  0.17811129  0.76525247    -0.83880
O1598       O  0.87599192  0.24101328  0.76551174    -0.86480
C1599       C  0.88760660  0.27651690  0.77261398     1.01160
O1600       O  0.89318656  0.28896078  0.80444712    -0.79300
O1601       O  0.95353362  0.28889358  0.83129406    -0.79450
C1602       C  0.97519705  0.27548952  0.83822841     1.01130
Cr1603     Cr  0.91872898  0.19587948  0.83997008     1.93740
Cr1604     Cr  0.85320239  0.19408041  0.79558931     1.93210
Cr1605     Cr  0.90100711  0.26369181  0.84873795     1.39100
O1606       O  0.89012375  0.21767213  0.82797215    -1.24540
O1607       O  0.96414726  0.18495993  0.60964658    -0.86790
O1608       O  0.92908078  0.14060388  0.66986401    -0.83840
C1609       C  0.61266076  0.12109149  0.67306711     0.96670
O1610       O  0.65066297  0.13946146  0.67621208    -0.83870
O1611       O  0.73628942  0.21428828  0.67937767    -0.86510
C1612       C  0.75541208  0.24089047  0.65554907     1.01200
O1613       O  0.73649363  0.24563999  0.63117168    -0.79280
O1614       O  0.67323374  0.24737590  0.59898621    -0.79460
C1615       C  0.64613714  0.21345045  0.58826429     1.01150
O1616       O  0.95426667  0.24506640  0.64010383    -0.86790
O1617       O  0.93519496  0.20579826  0.70380040    -0.83850
C1618       C  0.94193475  0.19187126  0.73155278     0.96690
O1619       O  0.63195661  0.17812265  0.73109697    -0.83880
O1620       O  0.70435341  0.24101666  0.73084462    -0.86480
C1621       C  0.72824902  0.27651721  0.72374813     1.01160
O1622       O  0.73511856  0.28897012  0.69191742    -0.79300
O1623       O  0.67471442  0.28892969  0.66507163    -0.79450
C1624       C  0.97298299  0.27553523  0.65813619     1.01130
Cr1625     Cr  0.94983194  0.19592001  0.65638253     1.93740
Cr1626     Cr  0.68021883  0.19409579  0.70076229     1.93210
Cr1627     Cr  0.70203310  0.26371953  0.64762104     1.39100
O1628       O  0.66689388  0.21769730  0.66837925    -1.24540
O1629       O  0.86348480  0.28561706  0.72004628    -0.86790
O1630       O  0.81913088  0.25054947  0.65982887    -0.83840
C1631       C  0.79962051  0.26746557  0.65662735     0.96670
O1632       O  0.81799308  0.97213703  0.65348147    -0.83870
O1633       O  0.89281452  0.05776452  0.65032175    -0.86510
C1634       C  0.91941689  0.07688414  0.67414829     1.01200
O1635       O  0.92416209  0.05796312  0.69852637    -0.79280
O1636       O  0.92589727  0.99470125  0.73070904    -0.79460
C1637       C  0.89197200  0.96760522  0.74142958     1.01150
O1638       O  0.92359000  0.27573408  0.68958964    -0.86790
O1639       O  0.88432812  0.25666876  0.62589441    -0.83850
C1640       C  0.87040837  0.26341557  0.59814169     0.96690
O1641       O  0.85665889  0.28677020  0.59859763    -0.83880
O1642       O  0.91955182  0.02584062  0.59885154    -0.86480
C1643       C  0.95505128  0.04973486  0.60594986     1.01160
O1644       O  0.63416666  0.05659810  0.63778167    -0.79300
O1645       O  0.96745460  0.99618843  0.66462670    -0.79450
C1646       C  0.95406099  0.29445486  0.67156131     1.01130
Cr1647     Cr  0.87444641  0.27130201  0.67331107     1.93740
Cr1648     Cr  0.87262811  0.00169717  0.62893317     1.93210
Cr1649     Cr  0.94224438  0.02350604  0.68207628     1.39100
O1650       O  0.89622593  0.98836760  0.66131539    -1.24540
O1651       O  0.86346041  0.21493238  0.44300206    -0.86790
O1652       O  0.81911538  0.20567163  0.50321624    -0.83840
C1653       C  0.79960612  0.16924315  0.50639708     0.96670
O1654       O  0.81798310  0.14961484  0.50954458    -0.83870
O1655       O  0.89280951  0.13881306  0.51270275    -0.86510
C1656       C  0.91941501  0.14630071  0.48887716     1.01200
O1657       O  0.92416339  0.16997060  0.46450296    -0.79280
O1658       O  0.92587499  0.23494617  0.43232757    -0.79460
C1659       C  0.89194117  0.22809240  0.42161232     1.01150
O1660       O  0.92356745  0.28494208  0.47343703    -0.86790
O1661       O  0.88431755  0.26475280  0.53713846    -0.83850
C1662       C  0.87040509  0.24408719  0.56489329     0.96690
O1663       O  0.85665492  0.20698201  0.56443796    -0.83880
O1664       O  0.91954905  0.19746879  0.56417878    -0.86480
C1665       C  0.95505251  0.20908902  0.55707873     1.01160
O1666       O  0.63416705  0.21467963  0.52524655    -0.79300
O1667       O  0.96743716  0.27503126  0.49840270    -0.79450
C1668       C  0.95403700  0.29669806  0.49146795     1.01130
Cr1669     Cr  0.87442953  0.24023003  0.48972628     1.93740
Cr1670     Cr  0.87262080  0.17468942  0.53409825     1.93210
Cr1671     Cr  0.94223570  0.22250506  0.48095568     1.39100
O1672       O  0.89621748  0.21161946  0.50172105    -1.24540
O1673       O  0.96413509  0.08295382  0.55337940    -0.86790
O1674       O  0.92906476  0.09223929  0.49316550    -0.83840
C1675       C  0.61265203  0.12866406  0.48994892     0.96670
O1676       O  0.65065318  0.14828867  0.48678435    -0.83870
O1677       O  0.73627466  0.15905942  0.48360426    -0.86510
C1678       C  0.75539408  0.15160285  0.50745534     1.01200
O1679       O  0.73646948  0.12794779  0.53183923    -0.79280
O1680       O  0.67322076  0.06295816  0.56403740    -0.79460
C1681       C  0.64612923  0.06979105  0.57476179     1.01150
O1682       O  0.95423802  0.01295657  0.52292716    -0.86790
O1683       O  0.93514388  0.03313387  0.45923271    -0.83850
C1684       C  0.94187855  0.05378726  0.43147149     0.96690
O1685       O  0.63190813  0.09089128  0.43191587    -0.83880
O1686       O  0.70428588  0.10035379  0.43216698    -0.86480
C1687       C  0.72818764  0.08875916  0.43926987     1.01160
O1688       O  0.73508582  0.08322139  0.47110434    -0.79300
O1689       O  0.67468812  0.02287180  0.49796404    -0.79450
C1690       C  0.97295466  0.33453819  0.50489384     1.01130
Cr1691     Cr  0.94980357  0.05766640  0.50664688     1.93740
Cr1692     Cr  0.68018615  0.12318298  0.46223855     1.93210
Cr1693     Cr  0.70200804  0.07540258  0.51540132     1.39100
O1694       O  0.66686355  0.08627594  0.49463954    -1.24540
O1695       O  0.89335300  0.34551055  0.27632118    -0.86790
O1696       O  0.88407186  0.04725724  0.33653190    -0.83840
C1697       C  0.84764834  0.36366612  0.33974674     0.96670
O1698       O  0.82802881  0.32566346  0.34291547    -0.83870
O1699       O  0.81726122  0.24004336  0.34609777    -0.86510
C1700       C  0.82471178  0.22092367  0.32224190     1.01200
O1701       O  0.84836729  0.23984906  0.29785958    -0.79280
O1702       O  0.91335137  0.30309201  0.26566431    -0.79460
C1703       C  0.90651159  0.33017899  0.25493878     1.01150
O1704       O  0.96335348  0.02208145  0.30677104    -0.86790
O1705       O  0.94318083  0.04118164  0.37046240    -0.83850
C1706       C  0.92253190  0.03444442  0.39822590     0.96690
O1707       O  0.88542949  0.34441597  0.39778339    -0.83880
O1708       O  0.87596856  0.27203440  0.39753264    -0.86480
C1709       C  0.88755825  0.24812813  0.39042775     1.01160
O1710       O  0.89308929  0.24122608  0.35859292    -0.79300
O1711       O  0.95343785  0.30162724  0.33173449    -0.79450
C1712       C  0.97510469  0.33669591  0.32480368     1.01130
Cr1713     Cr  0.91864515  0.02651713  0.32305071     1.93740
Cr1714     Cr  0.85313705  0.29613374  0.36746272     1.93210
Cr1715     Cr  0.90090941  0.27430702  0.31429844     1.39100
O1716       O  0.89003959  0.30945537  0.33506072    -1.24540
O1717       O  0.76137836  0.11285811  0.38669236    -0.86790
O1718       O  0.77063976  0.15720436  0.32647667    -0.83840
C1719       C  0.80706607  0.17670989  0.32329437     0.96670
O1720       O  0.82668866  0.15832826  0.32014139    -0.83870
O1721       O  0.83748142  0.08349572  0.31697826    -0.86510
C1722       C  0.83000408  0.05689799  0.34081129     1.01200
O1723       O  0.80633485  0.05214897  0.36518546    -0.79280
O1724       O  0.74136489  0.05043977  0.39736649    -0.79460
C1725       C  0.74822001  0.08437581  0.40808268     1.01150
O1726       O  0.69136915  0.05275055  0.35626000    -0.86790
O1727       O  0.71155112  0.09200082  0.29255805    -0.83850
C1728       C  0.73220986  0.10590876  0.26479942     0.96690
O1729       O  0.76931313  0.11965825  0.26525074    -0.83880
O1730       O  0.77881755  0.05675621  0.26551027    -0.86480
C1731       C  0.76720225  0.35458564  0.27261278     1.01160
O1732       O  0.76162161  0.34214137  0.30444611    -0.79300
O1733       O  0.70127446  0.34220866  0.33129350    -0.79450
C1734       C  0.67961105  0.35561266  0.33822821     1.01130
Cr1735     Cr  0.73607906  0.10188919  0.33996856     1.93740
Cr1736     Cr  0.80160629  0.10368874  0.29558773     1.93210
Cr1737     Cr  0.75380056  0.03407661  0.34873689     1.39100
O1738       O  0.76468427  0.08009649  0.32797061    -1.24660
O1739       O  0.69066136  0.11280898  0.10964515    -0.86790
O1740       O  0.72572771  0.15716520  0.16986156    -0.83840
C1741       C  0.04214777  0.17667753  0.17306569     0.96670
O1742       O  0.00414553  0.15830758  0.17621094    -0.83870
O1743       O  0.91851893  0.08348007  0.17937732    -0.86510
C1744       C  0.89939692  0.05687880  0.15554836     1.01200
O1745       O  0.91831614  0.05212960  0.13117134    -0.79280
O1746       O  0.98157545  0.05039286  0.09898639    -0.79460
C1747       C  0.00867157  0.08431839  0.08826353     1.01150
O1748       O  0.70054219  0.05270269  0.14010341    -0.86790
O1749       O  0.71961417  0.09197129  0.20379901    -0.83850
C1750       C  0.71287418  0.10589811  0.23155134     0.96690
O1751       O  0.02285178  0.11964615  0.23109570    -0.83880
O1752       O  0.95045541  0.05675223  0.23084453    -0.86480
C1753       C  0.92655954  0.35458524  0.22374868     1.01160
O1754       O  0.91968969  0.34213257  0.19191822    -0.79300
O1755       O  0.98009431  0.34217282  0.16507265    -0.79450
C1756       C  0.68182577  0.02223389  0.15813651     1.01130
Cr1757     Cr  0.70497691  0.10184918  0.15638109     1.93740
Cr1758     Cr  0.97458964  0.10367301  0.20076156     1.93210
Cr1759     Cr  0.95277588  0.03404964  0.14762146     1.39100
O1760       O  0.98791497  0.08007182  0.16837868    -1.24540
O1761       O  0.79132408  0.34548574  0.22004453    -0.86790
O1762       O  0.83567786  0.04721997  0.15982599    -0.83840
C1763       C  0.85518836  0.36363719  0.15662582     0.96670
O1764       O  0.83681582  0.32563243  0.15348027    -0.83870
O1765       O  0.76199526  0.24000492  0.15032138    -0.86510
C1766       C  0.73539182  0.22088474  0.17414750     1.01200
O1767       O  0.73064617  0.23980509  0.19852579    -0.79280
O1768       O  0.72891175  0.30306747  0.23070879    -0.79460
C1769       C  0.76283689  0.33016402  0.24142848     1.01150
O1770       O  0.73121871  0.02203480  0.18958891    -0.86790
O1771       O  0.77048007  0.04109961  0.12589256    -0.83850
C1772       C  0.78440004  0.03435296  0.09813981     0.96690
O1773       O  0.79815023  0.34433229  0.09859598    -0.83880
O1774       O  0.73525744  0.27192777  0.09885101    -0.86480
C1775       C  0.03309100  0.24803390  0.10594991     1.01160
O1776       O  0.02064193  0.24117132  0.13778197    -0.79300
O1777       O  0.02068749  0.30158067  0.16462716    -0.79450
C1778       C  0.70074767  0.33664745  0.17156143     1.01130
Cr1779     Cr  0.78036219  0.02646693  0.17330922     1.93740
Cr1780     Cr  0.78218115  0.29607205  0.12893220     1.93210
Cr1781     Cr  0.71256431  0.27426281  0.18207625     1.39100
O1782       O  0.75858284  0.30940131  0.16131445    -1.24540
O1783       O  0.79134819  0.08283669  0.94299960    -0.86790
O1784       O  0.83569310  0.09209736  0.00321338    -0.83840
C1785       C  0.85520248  0.12852562  0.00639568     0.96670
O1786       O  0.83682575  0.14815417  0.00954272    -0.83870
O1787       O  0.76199949  0.15895594  0.01270066    -0.86510
C1788       C  0.73539405  0.15146850  0.98887560     1.01200
O1789       O  0.73064570  0.12779886  0.96450152    -0.79280
O1790       O  0.72893364  0.06282310  0.93232644    -0.79460
C1791       C  0.76286735  0.06967665  0.92161051     1.01150
O1792       O  0.73124110  0.01282692  0.97343631    -0.86790
O1793       O  0.77049096  0.03301588  0.03713685    -0.83850
C1794       C  0.78440324  0.05368128  0.06489133     0.96690
O1795       O  0.79815314  0.09078634  0.06443572    -0.83880
O1796       O  0.73525928  0.10029946  0.06417718    -0.86480
C1797       C  0.03308938  0.08867972  0.05707767     1.01160
O1798       O  0.02064163  0.08308942  0.02524577    -0.79300
O1799       O  0.02070465  0.02273763  0.99840253    -0.79450
C1800       C  0.70077143  0.33440413  0.99146774     1.01130
Cr1801     Cr  0.78037907  0.05753895  0.98972432     1.93740
Cr1802     Cr  0.78218763  0.12307918  0.03409618     1.93210
Cr1803     Cr  0.71257304  0.07526411  0.98095472     1.39100
O1804       O  0.75859122  0.08614954  0.00171928    -1.24540
O1805       O  0.69067395  0.21481485  0.05337970    -0.86790
O1806       O  0.72574384  0.20552955  0.99316478    -0.83840
C1807       C  0.04215683  0.16910485  0.98994818     0.96670
O1808       O  0.00415572  0.14948004  0.98678442    -0.83870
O1809       O  0.91853450  0.13870846  0.98360553    -0.86510
C1810       C  0.89941427  0.14616521  0.00745566     1.01200
O1811       O  0.91833791  0.16981954  0.03183986    -0.79280
O1812       O  0.98158718  0.23480912  0.06403830    -0.79460
C1813       C  0.00867960  0.22797735  0.07476224     1.01150
O1814       O  0.70057026  0.28481174  0.02292690    -0.86790
O1815       O  0.71966391  0.26463491  0.95923205    -0.83850
C1816       C  0.71292942  0.24398175  0.93147111     0.96690
O1817       O  0.02290040  0.20687777  0.93191598    -0.83880
O1818       O  0.95052234  0.19741468  0.93216796    -0.86480
C1819       C  0.92662068  0.20900945  0.93927114     1.01160
O1820       O  0.91972297  0.21454774  0.97110566    -0.79300
O1821       O  0.98012021  0.27489678  0.99796497    -0.79450
C1822       C  0.68185364  0.29656374  0.00489410     1.01130
Cr1823     Cr  0.70500475  0.24010212  0.00664654     1.93740
Cr1824     Cr  0.97462259  0.17458571  0.96223926     1.93210
Cr1825     Cr  0.95280010  0.22236544  0.01540235     1.39100
O1826       O  0.98794477  0.21149235  0.99464014    -1.24540
O1827       O  0.76145564  0.28559185  0.77632016    -0.86790
O1828       O  0.77073637  0.25051167  0.83653148    -0.83840
C1829       C  0.80715978  0.26743583  0.83974667     0.96670
O1830       O  0.82677950  0.97210511  0.84291462    -0.83870
O1831       O  0.83754769  0.05772491  0.84609585    -0.86510
C1832       C  0.83009700  0.07684541  0.82224094     1.01200
O1833       O  0.80644210  0.05792101  0.79785841    -0.79280
O1834       O  0.74145813  0.99467775  0.76566302    -0.79460
C1835       C  0.74829720  0.96759023  0.75493775     1.01150
O1836       O  0.69145513  0.27568781  0.80677077    -0.86790
O1837       O  0.71162733  0.25658764  0.87046219    -0.83850
C1838       C  0.73227604  0.26332466  0.89822536     0.96690
O1839       O  0.76937838  0.28668608  0.89778238    -0.83880
O1840       O  0.77883972  0.02573446  0.89753110    -0.86480
C1841       C  0.76724997  0.04964071  0.89042612     1.01160
O1842       O  0.76171853  0.05654253  0.85859133    -0.79300
O1843       O  0.70137043  0.99614183  0.83173338    -0.79450
C1844       C  0.67970364  0.29440652  0.82480321     1.01130
Cr1845     Cr  0.73616335  0.27125207  0.82305020     1.93740
Cr1846     Cr  0.80167115  0.00163487  0.86746129     1.93210
Cr1847     Cr  0.75389938  0.02346233  0.81429707     1.39100
O1848       O  0.76476900  0.98831375  0.83505951    -1.24540
O1849       O  0.89342958  0.51824361  0.88669443    -0.86790
O1850       O  0.88416821  0.47389784  0.82647883    -0.83840
C1851       C  0.84774210  0.45439228  0.82329507     0.96670
O1852       O  0.82811935  0.47277371  0.82014251    -0.83870
O1853       O  0.81732673  0.54760611  0.81697970    -0.86510
C1854       C  0.82480365  0.57420365  0.84081229     1.01200
O1855       O  0.84847229  0.57895238  0.86518660    -0.79280
O1856       O  0.91344246  0.58066176  0.89736765    -0.79460
C1857       C  0.90658789  0.54672586  0.90808425     1.01150
O1858       O  0.96343884  0.57835140  0.85626049    -0.86790
O1859       O  0.94325738  0.53910159  0.79255924    -0.83850
C1860       C  0.92259898  0.52519393  0.76480090     0.96690
O1861       O  0.88549582  0.51144462  0.76525247    -0.83880
O1862       O  0.87599192  0.57434662  0.76551174    -0.86480
C1863       C  0.88760660  0.60985023  0.77261397     1.01160
O1864       O  0.89318656  0.62229411  0.80444712    -0.79300
O1865       O  0.95353362  0.62222691  0.83129406    -0.79450
C1866       C  0.97519705  0.60882286  0.83822841     1.01130
Cr1867     Cr  0.91872898  0.52921281  0.83997008     1.93740
Cr1868     Cr  0.85320239  0.52741374  0.79558931     1.93210
Cr1869     Cr  0.90100711  0.59702515  0.84873795     1.39100
O1870       O  0.89012375  0.55100546  0.82797215    -1.24540
O1871       O  0.96414726  0.51829327  0.60964658    -0.86790
O1872       O  0.92908078  0.47393721  0.66986401    -0.83840
C1873       C  0.61266076  0.45442483  0.67306711     0.96670
O1874       O  0.65066297  0.47279480  0.67621208    -0.83870
O1875       O  0.73628942  0.54762162  0.67937767    -0.86510
C1876       C  0.75541208  0.57422381  0.65554907     1.01200
O1877       O  0.73649363  0.57897333  0.63117168    -0.79280
O1878       O  0.67323374  0.58070923  0.59898621    -0.79460
C1879       C  0.64613714  0.54678378  0.58826429     1.01150
O1880       O  0.95426667  0.57839974  0.64010383    -0.86790
O1881       O  0.93519496  0.53913159  0.70380040    -0.83850
C1882       C  0.94193475  0.52520459  0.73155278     0.96690
O1883       O  0.63195661  0.51145598  0.73109697    -0.83880
O1884       O  0.70435341  0.57434999  0.73084462    -0.86480
C1885       C  0.72824902  0.60985055  0.72374813     1.01160
O1886       O  0.73511856  0.62230345  0.69191742    -0.79300
O1887       O  0.67471442  0.62226303  0.66507163    -0.79450
C1888       C  0.97298299  0.60886857  0.65813619     1.01130
Cr1889     Cr  0.94983194  0.52925335  0.65638253     1.93740
Cr1890     Cr  0.68021883  0.52742913  0.70076229     1.93210
Cr1891     Cr  0.70203310  0.59705287  0.64762104     1.39100
O1892       O  0.66689388  0.55103063  0.66837925    -1.24540
O1893       O  0.86348480  0.61895039  0.72004628    -0.86790
O1894       O  0.81913088  0.58388281  0.65982887    -0.83840
C1895       C  0.79962051  0.60079891  0.65662735     0.96670
O1896       O  0.81799308  0.30547036  0.65348147    -0.83870
O1897       O  0.89281452  0.39109785  0.65032175    -0.86510
C1898       C  0.91941689  0.41021747  0.67414829     1.01200
O1899       O  0.92416209  0.39129646  0.69852637    -0.79280
O1900       O  0.92589727  0.32803458  0.73070904    -0.79460
C1901       C  0.89197200  0.30093855  0.74142958     1.01150
O1902       O  0.92359000  0.60906742  0.68958964    -0.86790
O1903       O  0.88432812  0.59000210  0.62589441    -0.83850
C1904       C  0.87040837  0.59674890  0.59814169     0.96690
O1905       O  0.85665889  0.62010353  0.59859763    -0.83880
O1906       O  0.91955182  0.35917395  0.59885154    -0.86480
C1907       C  0.95505128  0.38306820  0.60594986     1.01160
O1908       O  0.63416666  0.38993144  0.63778167    -0.79300
O1909       O  0.96745460  0.32952176  0.66462670    -0.79450
C1910       C  0.95406099  0.62778820  0.67156131     1.01130
Cr1911     Cr  0.87444641  0.60463534  0.67331107     1.93740
Cr1912     Cr  0.87262811  0.33503050  0.62893317     1.93210
Cr1913     Cr  0.94224438  0.35683937  0.68207628     1.39100
O1914       O  0.89622593  0.32170093  0.66131539    -1.24540
O1915       O  0.86346041  0.54826571  0.44300206    -0.86790
O1916       O  0.81911538  0.53900497  0.50321624    -0.83840
C1917       C  0.79960612  0.50257648  0.50639708     0.96670
O1918       O  0.81798310  0.48294818  0.50954458    -0.83870
O1919       O  0.89280951  0.47214639  0.51270275    -0.86510
C1920       C  0.91941501  0.47963404  0.48887716     1.01200
O1921       O  0.92416339  0.50330393  0.46450296    -0.79280
O1922       O  0.92587499  0.56827951  0.43232757    -0.79460
C1923       C  0.89194117  0.56142574  0.42161232     1.01150
O1924       O  0.92356745  0.61827541  0.47343703    -0.86790
O1925       O  0.88431755  0.59808613  0.53713846    -0.83850
C1926       C  0.87040509  0.57742052  0.56489329     0.96690
O1927       O  0.85665492  0.54031535  0.56443796    -0.83880
O1928       O  0.91954905  0.53080212  0.56417878    -0.86480
C1929       C  0.95505251  0.54242236  0.55707873     1.01160
O1930       O  0.63416704  0.54801296  0.52524655    -0.79300
O1931       O  0.96743716  0.60836459  0.49840270    -0.79450
C1932       C  0.95403700  0.63003139  0.49146795     1.01130
Cr1933     Cr  0.87442953  0.57356336  0.48972628     1.93740
Cr1934     Cr  0.87262080  0.50802276  0.53409825     1.93210
Cr1935     Cr  0.94223570  0.55583839  0.48095568     1.39100
O1936       O  0.89621748  0.54495280  0.50172105    -1.24540
O1937       O  0.96413509  0.41628715  0.55337940    -0.86790
O1938       O  0.92906476  0.42557263  0.49316550    -0.83840
C1939       C  0.61265203  0.46199740  0.48994892     0.96670
O1940       O  0.65065318  0.48162201  0.48678435    -0.83870
O1941       O  0.73627466  0.49239276  0.48360425    -0.86510
C1942       C  0.75539408  0.48493618  0.50745534     1.01200
O1943       O  0.73646948  0.46128112  0.53183923    -0.79280
O1944       O  0.67322076  0.39629149  0.56403740    -0.79460
C1945       C  0.64612923  0.40312438  0.57476179     1.01150
O1946       O  0.95423802  0.34628990  0.52292716    -0.86790
O1947       O  0.93514388  0.36646720  0.45923271    -0.83850
C1948       C  0.94187855  0.38712060  0.43147149     0.96690
O1949       O  0.63190812  0.42422461  0.43191587    -0.83880
O1950       O  0.70428588  0.43368713  0.43216698    -0.86480
C1951       C  0.72818764  0.42209249  0.43926987     1.01160
O1952       O  0.73508582  0.41655473  0.47110434    -0.79300
O1953       O  0.67468812  0.35620514  0.49796404    -0.79450
C1954       C  0.97295466  0.66787152  0.50489384     1.01130
Cr1955     Cr  0.94980357  0.39099973  0.50664688     1.93740
Cr1956     Cr  0.68018615  0.45651631  0.46223855     1.93210
Cr1957     Cr  0.70200804  0.40873591  0.51540132     1.39100
O1958       O  0.66686355  0.41960927  0.49463954    -1.24540
O1959       O  0.89335300  0.67884389  0.27632118    -0.86790
O1960       O  0.88407186  0.38059058  0.33653190    -0.83840
C1961       C  0.84764834  0.69699945  0.33974674     0.96670
O1962       O  0.82802881  0.65899680  0.34291547    -0.83870
O1963       O  0.81726122  0.57337669  0.34609777    -0.86510
C1964       C  0.82471178  0.55425701  0.32224190     1.01200
O1965       O  0.84836729  0.57318240  0.29785958    -0.79280
O1966       O  0.91335137  0.63642534  0.26566431    -0.79460
C1967       C  0.90651159  0.66351232  0.25493878     1.01150
O1968       O  0.96335348  0.35541478  0.30677104    -0.86790
O1969       O  0.94318083  0.37451497  0.37046240    -0.83850
C1970       C  0.92253190  0.36777776  0.39822590     0.96690
O1971       O  0.88542949  0.67774930  0.39778339    -0.83880
O1972       O  0.87596856  0.60536773  0.39753264    -0.86480
C1973       C  0.88755825  0.58146146  0.39042775     1.01160
O1974       O  0.89308929  0.57455941  0.35859291    -0.79300
O1975       O  0.95343785  0.63496057  0.33173449    -0.79450
C1976       C  0.97510468  0.67002924  0.32480368     1.01130
Cr1977     Cr  0.91864515  0.35985046  0.32305071     1.93740
Cr1978     Cr  0.85313705  0.62946707  0.36746272     1.93210
Cr1979     Cr  0.90090941  0.60764035  0.31429844     1.39100
O1980       O  0.89003959  0.64278870  0.33506072    -1.24540
O1981       O  0.76137836  0.44619144  0.38669236    -0.86790
O1982       O  0.77063976  0.49053769  0.32647666    -0.83840
C1983       C  0.80706607  0.51004322  0.32329437     0.96670
O1984       O  0.82668866  0.49166160  0.32014139    -0.83870
O1985       O  0.83748142  0.41682905  0.31697826    -0.86510
C1986       C  0.83000408  0.39023133  0.34081129     1.01200
O1987       O  0.80633485  0.38548230  0.36518546    -0.79280
O1988       O  0.74136489  0.38377311  0.39736649    -0.79460
C1989       C  0.74822001  0.41770915  0.40808268     1.01150
O1990       O  0.69136915  0.38608388  0.35626000    -0.86790
O1991       O  0.71155112  0.42533415  0.29255805    -0.83850
C1992       C  0.73220986  0.43924210  0.26479942     0.96690
O1993       O  0.76931313  0.45299158  0.26525074    -0.83880
O1994       O  0.77881755  0.39008954  0.26551027    -0.86480
C1995       C  0.76720225  0.68791897  0.27261278     1.01160
O1996       O  0.76162161  0.67547470  0.30444611    -0.79300
O1997       O  0.70127446  0.67554200  0.33129350    -0.79450
C1998       C  0.67961105  0.68894599  0.33822821     1.01130
Cr1999     Cr  0.73607906  0.43522253  0.33996856     1.93740
Cr2000     Cr  0.80160629  0.43702207  0.29558773     1.93210
Cr2001     Cr  0.75380056  0.36740995  0.34873689     1.39100
O2002       O  0.76468427  0.41342982  0.32797061    -1.24660
O2003       O  0.69066136  0.44614231  0.10964515    -0.86790
O2004       O  0.72572771  0.49049853  0.16986156    -0.83840
C2005       C  0.04214777  0.51001086  0.17306569     0.96670
O2006       O  0.00414553  0.49164092  0.17621094    -0.83870
O2007       O  0.91851893  0.41681340  0.17937732    -0.86510
C2008       C  0.89939692  0.39021213  0.15554836     1.01200
O2009       O  0.91831614  0.38546293  0.13117134    -0.79280
O2010       O  0.98157545  0.38372619  0.09898639    -0.79460
C2011       C  0.00867157  0.41765172  0.08826353     1.01150
O2012       O  0.70054219  0.38603603  0.14010341    -0.86790
O2013       O  0.71961417  0.42530462  0.20379901    -0.83850
C2014       C  0.71287418  0.43923145  0.23155134     0.96690
O2015       O  0.02285178  0.45297949  0.23109570    -0.83880
O2016       O  0.95045541  0.39008556  0.23084453    -0.86480
C2017       C  0.92655954  0.68791858  0.22374868     1.01160
O2018       O  0.91968969  0.67546590  0.19191822    -0.79300
O2019       O  0.98009431  0.67550616  0.16507264    -0.79450
C2020       C  0.68182577  0.35556722  0.15813651     1.01130
Cr2021     Cr  0.70497691  0.43518251  0.15638109     1.93740
Cr2022     Cr  0.97458964  0.43700634  0.20076156     1.93210
Cr2023     Cr  0.95277588  0.36738297  0.14762146     1.39100
O2024       O  0.98791497  0.41340516  0.16837868    -1.24540
O2025       O  0.79132408  0.67881907  0.22004453    -0.86790
O2026       O  0.83567786  0.38055330  0.15982599    -0.83840
C2027       C  0.85518836  0.69697053  0.15662582     0.96670
O2028       O  0.83681582  0.65896576  0.15348027    -0.83870
O2029       O  0.76199526  0.57333826  0.15032138    -0.86510
C2030       C  0.73539182  0.55421807  0.17414750     1.01200
O2031       O  0.73064617  0.57313842  0.19852579    -0.79280
O2032       O  0.72891175  0.63640080  0.23070879    -0.79460
C2033       C  0.76283689  0.66349735  0.24142848     1.01150
O2034       O  0.73121871  0.35536813  0.18958891    -0.86790
O2035       O  0.77048007  0.37443295  0.12589256    -0.83850
C2036       C  0.78440004  0.36768630  0.09813981     0.96690
O2037       O  0.79815023  0.67766562  0.09859598    -0.83880
O2038       O  0.73525744  0.60526111  0.09885101    -0.86480
C2039       C  0.03309100  0.58136724  0.10594991     1.01160
O2040       O  0.02064193  0.57450465  0.13778197    -0.79300
O2041       O  0.02068749  0.63491400  0.16462716    -0.79450
C2042       C  0.70074767  0.66998078  0.17156143     1.01130
Cr2043     Cr  0.78036219  0.35980026  0.17330922     1.93740
Cr2044     Cr  0.78218115  0.62940538  0.12893220     1.93210
Cr2045     Cr  0.71256431  0.60759614  0.18207624     1.39100
O2046       O  0.75858284  0.64273464  0.16131445    -1.24540
O2047       O  0.79134819  0.41617002  0.94299960    -0.86790
O2048       O  0.83569310  0.42543069  0.00321338    -0.83840
C2049       C  0.85520248  0.46185895  0.00639568     0.96670
O2050       O  0.83682575  0.48148750  0.00954272    -0.83870
O2051       O  0.76199949  0.49228927  0.01270066    -0.86510
C2052       C  0.73539405  0.48480184  0.98887560     1.01200
O2053       O  0.73064570  0.46113219  0.96450152    -0.79280
O2054       O  0.72893364  0.39615644  0.93232644    -0.79460
C2055       C  0.76286735  0.40300998  0.92161051     1.01150
O2056       O  0.73124110  0.34616025  0.97343631    -0.86790
O2057       O  0.77049096  0.36634921  0.03713685    -0.83850
C2058       C  0.78440324  0.38701461  0.06489133     0.96690
O2059       O  0.79815314  0.42411968  0.06443572    -0.83880
O2060       O  0.73525928  0.43363279  0.06417718    -0.86480
C2061       C  0.03308938  0.42201305  0.05707767     1.01160
O2062       O  0.02064163  0.41642275  0.02524577    -0.79300
O2063       O  0.02070465  0.35607097  0.99840253    -0.79450
C2064       C  0.70077143  0.66773747  0.99146774     1.01130
Cr2065     Cr  0.78037907  0.39087229  0.98972432     1.93740
Cr2066     Cr  0.78218763  0.45641251  0.03409618     1.93210
Cr2067     Cr  0.71257304  0.40859744  0.98095472     1.39100
O2068       O  0.75859122  0.41948288  0.00171928    -1.24540
O2069       O  0.69067395  0.54814818  0.05337970    -0.86790
O2070       O  0.72574384  0.53886288  0.99316478    -0.83840
C2071       C  0.04215683  0.50243818  0.98994818     0.96670
O2072       O  0.00415572  0.48281338  0.98678442    -0.83870
O2073       O  0.91853450  0.47204179  0.98360553    -0.86510
C2074       C  0.89941427  0.47949855  0.00745566     1.01200
O2075       O  0.91833791  0.50315287  0.03183986    -0.79280
O2076       O  0.98158718  0.56814245  0.06403830    -0.79460
C2077       C  0.00867960  0.56131068  0.07476224     1.01150
O2078       O  0.70057026  0.61814508  0.02292690    -0.86790
O2079       O  0.71966391  0.59796824  0.95923205    -0.83850
C2080       C  0.71292942  0.57731508  0.93147111     0.96690
O2081       O  0.02290040  0.54021110  0.93191598    -0.83880
O2082       O  0.95052234  0.53074802  0.93216796    -0.86480
C2083       C  0.92662068  0.54234279  0.93927114     1.01160
O2084       O  0.91972297  0.54788107  0.97110566    -0.79300
O2085       O  0.98012021  0.60823011  0.99796497    -0.79450
C2086       C  0.68185364  0.62989707  0.00489410     1.01130
Cr2087     Cr  0.70500475  0.57343545  0.00664654     1.93740
Cr2088     Cr  0.97462259  0.50791905  0.96223926     1.93210
Cr2089     Cr  0.95280010  0.55569878  0.01540234     1.39100
O2090       O  0.98794477  0.54482569  0.99464014    -1.24540
O2091       O  0.76145564  0.61892519  0.77632016    -0.86790
O2092       O  0.77073637  0.58384501  0.83653147    -0.83840
C2093       C  0.80715978  0.60076916  0.83974667     0.96670
O2094       O  0.82677950  0.30543844  0.84291462    -0.83870
O2095       O  0.83754770  0.39105824  0.84609585    -0.86510
C2096       C  0.83009700  0.41017874  0.82224094     1.01200
O2097       O  0.80644210  0.39125434  0.79785841    -0.79280
O2098       O  0.74145813  0.32801109  0.76566302    -0.79460
C2099       C  0.74829720  0.30092356  0.75493775     1.01150
O2100       O  0.69145513  0.60902115  0.80677077    -0.86790
O2101       O  0.71162733  0.58992098  0.87046218    -0.83850
C2102       C  0.73227604  0.59665800  0.89822536     0.96690
O2103       O  0.76937838  0.62001941  0.89778238    -0.83880
O2104       O  0.77883972  0.35906779  0.89753110    -0.86480
C2105       C  0.76724997  0.38297404  0.89042612     1.01160
O2106       O  0.76171853  0.38987587  0.85859133    -0.79300
O2107       O  0.70137043  0.32947516  0.83173338    -0.79450
C2108       C  0.67970364  0.62773986  0.82480321     1.01130
Cr2109     Cr  0.73616335  0.60458540  0.82305020     1.93740
Cr2110     Cr  0.80167115  0.33496820  0.86746129     1.93210
Cr2111     Cr  0.75389938  0.35679567  0.81429707     1.39100
O2112       O  0.76476900  0.32164708  0.83505951    -1.24540
O2113       O  0.89342958  0.85157694  0.88669443    -0.86790
O2114       O  0.88416821  0.80723118  0.82647883    -0.83840
C2115       C  0.84774210  0.78772561  0.82329507     0.96670
O2116       O  0.82811935  0.80610705  0.82014251    -0.83870
O2117       O  0.81732673  0.88093944  0.81697970    -0.86510
C2118       C  0.82480365  0.90753699  0.84081229     1.01200
O2119       O  0.84847229  0.91228571  0.86518660    -0.79280
O2120       O  0.91344246  0.91399510  0.89736765    -0.79460
C2121       C  0.90658789  0.88005920  0.90808425     1.01150
O2122       O  0.96343884  0.91168474  0.85626049    -0.86790
O2123       O  0.94325738  0.87243492  0.79255924    -0.83850
C2124       C  0.92259898  0.85852726  0.76480090     0.96690
O2125       O  0.88549582  0.84477795  0.76525247    -0.83880
O2126       O  0.87599192  0.90767995  0.76551174    -0.86480
C2127       C  0.88760660  0.94318356  0.77261397     1.01160
O2128       O  0.89318656  0.95562744  0.80444712    -0.79300
O2129       O  0.95353362  0.95556024  0.83129406    -0.79450
C2130       C  0.97519705  0.94215619  0.83822841     1.01130
Cr2131     Cr  0.91872898  0.86254615  0.83997008     1.93740
Cr2132     Cr  0.85320239  0.86074708  0.79558931     1.93210
Cr2133     Cr  0.90100711  0.93035848  0.84873795     1.39100
O2134       O  0.89012375  0.88433880  0.82797215    -1.24540
O2135       O  0.96414726  0.85162660  0.60964658    -0.86790
O2136       O  0.92908078  0.80727055  0.66986401    -0.83840
C2137       C  0.61266076  0.78775816  0.67306711     0.96670
O2138       O  0.65066297  0.80612813  0.67621208    -0.83870
O2139       O  0.73628942  0.88095495  0.67937767    -0.86510
C2140       C  0.75541208  0.90755714  0.65554907     1.01200
O2141       O  0.73649363  0.91230666  0.63117168    -0.79280
O2142       O  0.67323374  0.91404256  0.59898621    -0.79460
C2143       C  0.64613714  0.88011711  0.58826429     1.01150
O2144       O  0.95426667  0.91173307  0.64010383    -0.86790
O2145       O  0.93519496  0.87246492  0.70380040    -0.83850
C2146       C  0.94193475  0.85853793  0.73155278     0.96690
O2147       O  0.63195661  0.84478932  0.73109697    -0.83880
O2148       O  0.70435341  0.90768333  0.73084462    -0.86480
C2149       C  0.72824902  0.94318388  0.72374813     1.01160
O2150       O  0.73511856  0.95563679  0.69191742    -0.79300
O2151       O  0.67471442  0.95559636  0.66507163    -0.79450
C2152       C  0.97298299  0.94220190  0.65813619     1.01130
Cr2153     Cr  0.94983194  0.86258668  0.65638253     1.93740
Cr2154     Cr  0.68021883  0.86076246  0.70076229     1.93210
Cr2155     Cr  0.70203310  0.93038620  0.64762104     1.39100
O2156       O  0.66689388  0.88436397  0.66837925    -1.24540
O2157       O  0.86348480  0.95228372  0.72004628    -0.86790
O2158       O  0.81913088  0.91721614  0.65982887    -0.83840
C2159       C  0.79962051  0.93413224  0.65662735     0.96670
O2160       O  0.81799308  0.63880369  0.65348147    -0.83870
O2161       O  0.89281452  0.72443118  0.65032175    -0.86510
C2162       C  0.91941689  0.74355081  0.67414829     1.01200
O2163       O  0.92416209  0.72462979  0.69852637    -0.79280
O2164       O  0.92589727  0.66136792  0.73070904    -0.79460
C2165       C  0.89197200  0.63427188  0.74142958     1.01150
O2166       O  0.92359000  0.94240075  0.68958964    -0.86790
O2167       O  0.88432812  0.92333543  0.62589441    -0.83850
C2168       C  0.87040837  0.93008223  0.59814169     0.96690
O2169       O  0.85665889  0.95343687  0.59859763    -0.83880
O2170       O  0.91955182  0.69250729  0.59885154    -0.86480
C2171       C  0.95505128  0.71640153  0.60594986     1.01160
O2172       O  0.63416666  0.72326477  0.63778167    -0.79300
O2173       O  0.96745460  0.66285509  0.66462670    -0.79450
C2174       C  0.95406099  0.96112153  0.67156131     1.01130
Cr2175     Cr  0.87444641  0.93796867  0.67331107     1.93740
Cr2176     Cr  0.87262810  0.66836383  0.62893317     1.93210
Cr2177     Cr  0.94224438  0.69017270  0.68207628     1.39100
O2178       O  0.89622593  0.65503426  0.66131539    -1.24540
O2179       O  0.86346041  0.88159905  0.44300206    -0.86790
O2180       O  0.81911538  0.87233830  0.50321624    -0.83840
C2181       C  0.79960612  0.83590982  0.50639708     0.96670
O2182       O  0.81798310  0.81628151  0.50954458    -0.83870
O2183       O  0.89280951  0.80547973  0.51270275    -0.86510
C2184       C  0.91941501  0.81296737  0.48887716     1.01200
O2185       O  0.92416339  0.83663726  0.46450296    -0.79280
O2186       O  0.92587499  0.90161284  0.43232757    -0.79460
C2187       C  0.89194117  0.89475907  0.42161232     1.01150
O2188       O  0.92356745  0.95160875  0.47343703    -0.86790
O2189       O  0.88431755  0.93141947  0.53713846    -0.83850
C2190       C  0.87040509  0.91075386  0.56489329     0.96690
O2191       O  0.85665492  0.87364868  0.56443796    -0.83880
O2192       O  0.91954905  0.86413545  0.56417878    -0.86480
C2193       C  0.95505251  0.87575569  0.55707873     1.01160
O2194       O  0.63416704  0.88134630  0.52524655    -0.79300
O2195       O  0.96743716  0.94169793  0.49840270    -0.79450
C2196       C  0.95403700  0.96336472  0.49146795     1.01130
Cr2197     Cr  0.87442953  0.90689669  0.48972628     1.93740
Cr2198     Cr  0.87262080  0.84135609  0.53409825     1.93210
Cr2199     Cr  0.94223570  0.88917172  0.48095568     1.39100
O2200       O  0.89621748  0.87828613  0.50172105    -1.24540
O2201       O  0.96413509  0.74962048  0.55337940    -0.86790
O2202       O  0.92906476  0.75890596  0.49316550    -0.83840
C2203       C  0.61265203  0.79533073  0.48994892     0.96670
O2204       O  0.65065318  0.81495534  0.48678435    -0.83870
O2205       O  0.73627466  0.82572609  0.48360426    -0.86510
C2206       C  0.75539408  0.81826951  0.50745534     1.01200
O2207       O  0.73646948  0.79461445  0.53183923    -0.79280
O2208       O  0.67322076  0.72962482  0.56403740    -0.79460
C2209       C  0.64612923  0.73645771  0.57476179     1.01150
O2210       O  0.95423802  0.67962324  0.52292716    -0.86790
O2211       O  0.93514388  0.69980053  0.45923271    -0.83850
C2212       C  0.94187855  0.72045393  0.43147149     0.96690
O2213       O  0.63190812  0.75755795  0.43191587    -0.83880
O2214       O  0.70428588  0.76702046  0.43216698    -0.86480
C2215       C  0.72818764  0.75542583  0.43926987     1.01160
O2216       O  0.73508582  0.74988806  0.47110434    -0.79300
O2217       O  0.67468812  0.68953847  0.49796404    -0.79450
C2218       C  0.97295466  0.00120485  0.50489384     1.01130
Cr2219     Cr  0.94980357  0.72433307  0.50664688     1.93740
Cr2220     Cr  0.68018615  0.78984965  0.46223855     1.93210
Cr2221     Cr  0.70200804  0.74206924  0.51540132     1.39100
O2222       O  0.66686355  0.75294260  0.49463954    -1.24540
O2223       O  0.89335301  0.01217722  0.27632118    -0.86790
O2224       O  0.88407186  0.71392391  0.33653190    -0.83840
C2225       C  0.84764834  0.03033279  0.33974674     0.96670
O2226       O  0.82802881  0.99233013  0.34291547    -0.83870
O2227       O  0.81726122  0.90671003  0.34609777    -0.86510
C2228       C  0.82471178  0.88759034  0.32224190     1.01200
O2229       O  0.84836729  0.90651573  0.29785958    -0.79280
O2230       O  0.91335137  0.96975867  0.26566431    -0.79460
C2231       C  0.90651159  0.99684565  0.25493878     1.01150
O2232       O  0.96335348  0.68874811  0.30677104    -0.86790
O2233       O  0.94318083  0.70784831  0.37046240    -0.83850
C2234       C  0.92253190  0.70111109  0.39822590     0.96690
O2235       O  0.88542949  0.01108263  0.39778339    -0.83880
O2236       O  0.87596856  0.93870107  0.39753264    -0.86480
C2237       C  0.88755825  0.91479479  0.39042775     1.01160
O2238       O  0.89308929  0.90789274  0.35859292    -0.79300
O2239       O  0.95343785  0.96829391  0.33173449    -0.79450
C2240       C  0.97510469  0.00336257  0.32480368     1.01130
Cr2241     Cr  0.91864515  0.69318380  0.32305071     1.93740
Cr2242     Cr  0.85313705  0.96280041  0.36746272     1.93210
Cr2243     Cr  0.90090941  0.94097368  0.31429844     1.39100
O2244       O  0.89003959  0.97612203  0.33506072    -1.24540
O2245       O  0.76137836  0.77952478  0.38669236    -0.86790
O2246       O  0.77063976  0.82387103  0.32647666    -0.83840
C2247       C  0.80706607  0.84337656  0.32329437     0.96670
O2248       O  0.82668866  0.82499493  0.32014139    -0.83870
O2249       O  0.83748142  0.75016239  0.31697826    -0.86510
C2250       C  0.83000408  0.72356466  0.34081129     1.01200
O2251       O  0.80633485  0.71881564  0.36518546    -0.79280
O2252       O  0.74136489  0.71710644  0.39736649    -0.79460
C2253       C  0.74822001  0.75104248  0.40808268     1.01150
O2254       O  0.69136915  0.71941722  0.35626000    -0.86790
O2255       O  0.71155112  0.75866749  0.29255805    -0.83850
C2256       C  0.73220986  0.77257543  0.26479942     0.96690
O2257       O  0.76931313  0.78632491  0.26525074    -0.83880
O2258       O  0.77881755  0.72342288  0.26551027    -0.86480
C2259       C  0.76720225  0.02125230  0.27261278     1.01160
O2260       O  0.76162161  0.00880804  0.30444611    -0.79300
O2261       O  0.70127446  0.00887533  0.33129350    -0.79450
C2262       C  0.67961105  0.02227933  0.33822821     1.01130
Cr2263     Cr  0.73607906  0.76855586  0.33996856     1.93740
Cr2264     Cr  0.80160629  0.77035541  0.29558773     1.93210
Cr2265     Cr  0.75380056  0.70074328  0.34873689     1.39100
O2266       O  0.76468427  0.74676315  0.32797061    -1.24660
O2267       O  0.69066136  0.77947565  0.10964515    -0.86790
O2268       O  0.72572771  0.82383187  0.16986156    -0.83840
C2269       C  0.04214777  0.84334419  0.17306569     0.96670
O2270       O  0.00414553  0.82497425  0.17621094    -0.83870
O2271       O  0.91851893  0.75014674  0.17937732    -0.86510
C2272       C  0.89939692  0.72354546  0.15554836     1.01200
O2273       O  0.91831614  0.71879627  0.13117134    -0.79280
O2274       O  0.98157545  0.71705952  0.09898639    -0.79460
C2275       C  0.00867157  0.75098505  0.08826353     1.01150
O2276       O  0.70054219  0.71936936  0.14010340    -0.86790
O2277       O  0.71961417  0.75863795  0.20379901    -0.83850
C2278       C  0.71287418  0.77256478  0.23155134     0.96690
O2279       O  0.02285178  0.78631282  0.23109570    -0.83880
O2280       O  0.95045541  0.72341890  0.23084453    -0.86480
C2281       C  0.92655954  0.02125191  0.22374868     1.01160
O2282       O  0.91968969  0.00879924  0.19191822    -0.79300
O2283       O  0.98009431  0.00883949  0.16507265    -0.79450
C2284       C  0.68182577  0.68890056  0.15813651     1.01130
Cr2285     Cr  0.70497691  0.76851585  0.15638109     1.93740
Cr2286     Cr  0.97458964  0.77033967  0.20076156     1.93210
Cr2287     Cr  0.95277588  0.70071630  0.14762146     1.39100
O2288       O  0.98791497  0.74673849  0.16837868    -1.24540
O2289       O  0.79132408  0.01215241  0.22004453    -0.86790
O2290       O  0.83567786  0.71388664  0.15982599    -0.83840
C2291       C  0.85518836  0.03030386  0.15662582     0.96670
O2292       O  0.83681582  0.99229910  0.15348027    -0.83870
O2293       O  0.76199526  0.90667159  0.15032138    -0.86510
C2294       C  0.73539182  0.88755140  0.17414750     1.01200
O2295       O  0.73064617  0.90647175  0.19852579    -0.79280
O2296       O  0.72891175  0.96973413  0.23070879    -0.79460
C2297       C  0.76283689  0.99683068  0.24142848     1.01150
O2298       O  0.73121871  0.68870146  0.18958891    -0.86790
O2299       O  0.77048007  0.70776628  0.12589256    -0.83850
C2300       C  0.78440004  0.70101963  0.09813981     0.96690
O2301       O  0.79815023  0.01099896  0.09859598    -0.83880
O2302       O  0.73525744  0.93859444  0.09885101    -0.86480
C2303       C  0.03309100  0.91470057  0.10594991     1.01160
O2304       O  0.02064193  0.90783799  0.13778197    -0.79300
O2305       O  0.02068749  0.96824733  0.16462716    -0.79450
C2306       C  0.70074767  0.00331412  0.17156143     1.01130
Cr2307     Cr  0.78036219  0.69313359  0.17330922     1.93740
Cr2308     Cr  0.78218115  0.96273871  0.12893220     1.93210
Cr2309     Cr  0.71256431  0.94092948  0.18207625     1.39100
O2310       O  0.75858284  0.97606798  0.16131445    -1.24540
O2311       O  0.79134819  0.74950335  0.94299960    -0.86790
O2312       O  0.83569310  0.75876402  0.00321338    -0.83840
C2313       C  0.85520248  0.79519229  0.00639568     0.96670
O2314       O  0.83682575  0.81482084  0.00954272    -0.83870
O2315       O  0.76199949  0.82562261  0.01270066    -0.86510
C2316       C  0.73539405  0.81813517  0.98887560     1.01200
O2317       O  0.73064570  0.79446553  0.96450152    -0.79280
O2318       O  0.72893364  0.72948977  0.93232644    -0.79460
C2319       C  0.76286735  0.73634332  0.92161051     1.01150
O2320       O  0.73124110  0.67949359  0.97343631    -0.86790
O2321       O  0.77049096  0.69968255  0.03713685    -0.83850
C2322       C  0.78440324  0.72034794  0.06489133     0.96690
O2323       O  0.79815314  0.75745301  0.06443572    -0.83880
O2324       O  0.73525928  0.76696613  0.06417718    -0.86480
C2325       C  0.03308938  0.75534639  0.05707767     1.01160
O2326       O  0.02064163  0.74975609  0.02524577    -0.79300
O2327       O  0.02070465  0.68940430  0.99840253    -0.79450
C2328       C  0.70077143  0.00107080  0.99146774     1.01130
Cr2329     Cr  0.78037907  0.72420562  0.98972432     1.93740
Cr2330     Cr  0.78218763  0.78974584  0.03409618     1.93210
Cr2331     Cr  0.71257304  0.74193078  0.98095472     1.39100
O2332       O  0.75859122  0.75281621  0.00171928    -1.24540
O2333       O  0.69067395  0.88148151  0.05337970    -0.86790
O2334       O  0.72574384  0.87219622  0.99316478    -0.83840
C2335       C  0.04215683  0.83577152  0.98994818     0.96670
O2336       O  0.00415572  0.81614671  0.98678442    -0.83870
O2337       O  0.91853450  0.80537513  0.98360553    -0.86510
C2338       C  0.89941427  0.81283188  0.00745566     1.01200
O2339       O  0.91833791  0.83648621  0.03183986    -0.79280
O2340       O  0.98158718  0.90147578  0.06403830    -0.79460
C2341       C  0.00867960  0.89464401  0.07476224     1.01150
O2342       O  0.70057026  0.95147841  0.02292690    -0.86790
O2343       O  0.71966391  0.93130157  0.95923205    -0.83850
C2344       C  0.71292942  0.91064842  0.93147111     0.96690
O2345       O  0.02290040  0.87354443  0.93191598    -0.83880
O2346       O  0.95052234  0.86408135  0.93216796    -0.86480
C2347       C  0.92662068  0.87567612  0.93927114     1.01160
O2348       O  0.91972297  0.88121440  0.97110566    -0.79300
O2349       O  0.98012021  0.94156345  0.99796497    -0.79450
C2350       C  0.68185364  0.96323040  0.00489410     1.01130
Cr2351     Cr  0.70500475  0.90676879  0.00664654     1.93740
Cr2352     Cr  0.97462259  0.84125238  0.96223926     1.93210
Cr2353     Cr  0.95280010  0.88903211  0.01540234     1.39100
O2354       O  0.98794477  0.87815902  0.99464014    -1.24540
O2355       O  0.76145564  0.95225852  0.77632016    -0.86790
O2356       O  0.77073637  0.91717834  0.83653147    -0.83840
C2357       C  0.80715978  0.93410249  0.83974667     0.96670
O2358       O  0.82677950  0.63877177  0.84291462    -0.83870
O2359       O  0.83754770  0.72439158  0.84609585    -0.86510
C2360       C  0.83009700  0.74351207  0.82224094     1.01200
O2361       O  0.80644210  0.72458767  0.79785841    -0.79280
O2362       O  0.74145813  0.66134442  0.76566302    -0.79460
C2363       C  0.74829720  0.63425689  0.75493775     1.01150
O2364       O  0.69145513  0.94235448  0.80677077    -0.86790
O2365       O  0.71162733  0.92325431  0.87046219    -0.83850
C2366       C  0.73227604  0.92999133  0.89822536     0.96690
O2367       O  0.76937838  0.95335275  0.89778238    -0.83880
O2368       O  0.77883972  0.69240113  0.89753110    -0.86480
C2369       C  0.76724997  0.71630738  0.89042612     1.01160
O2370       O  0.76171853  0.72320920  0.85859132    -0.79300
O2371       O  0.70137043  0.66280850  0.83173338    -0.79450
C2372       C  0.67970364  0.96107319  0.82480321     1.01130
Cr2373     Cr  0.73616335  0.93791873  0.82305020     1.93740
Cr2374     Cr  0.80167115  0.66830154  0.86746129     1.93210
Cr2375     Cr  0.75389938  0.69012900  0.81429707     1.39100
O2376       O  0.76476900  0.65498042  0.83505951    -1.24540
loop_ 
_geom_bond_atom_site_label_1 
_geom_bond_atom_site_label_2 
_geom_bond_distance 
_geom_bond_site_symmetry_2 
_ccdc_geom_bond_type 
O1          Cr19   1.953       .  S
O1            C9   1.257       .  A
O2          Cr19   1.963       .  S
O2            C3   1.243       .  A
C3            O4   1.296       .  A
C3          C248   1.511       .  S
O4          Cr20   2.073       .  S
O5          Cr20   2.088       .  S
O5            C6   1.291       .  A
C6            O7   1.249       .  A
C6          C245   1.511       .  S
O7          Cr21   1.914       .  S
O8          Cr21   2.071       .  S
O8            C9   1.283       .  A
C9          C235   1.466       .  S
O10         Cr19   1.944       .  S
O10          C18   1.243       .  A
O11         Cr19   1.966       .  S
O11          C12   1.263       .  A
C12          O13   1.274       .  A
C12          C34   1.459       .  S
O13         Cr20   2.020       .  S
O14         Cr20   1.952       .  S
O14          C15   1.257       .  A
C15          O16   1.267       .  A
C15         C317   1.466       .  S
O16         Cr21   2.035       .  S
O17         Cr21   1.900       .  S
O17          C18   1.229       .  A
C18        C1052   1.380       .  S
Cr19         O22   1.774       .  S
Cr20         O22   1.757       .  S
Cr21         O22   1.809       .  S
O23         Cr41   1.953       .  S
O23         C823   1.257       .  A
O24         Cr41   1.963       .  S
O24         C817   1.243       .  A
C25          O26   1.296       .  A
C25        O1608   1.243       .  A
C25        C1634   1.511       .  S
O26         Cr42   2.072   1_655  S
O27         Cr42   2.088       .  S
O27          C28   1.291       .  A
C28          O29   1.249       .  A
C28          C47   1.511       .  S
O29         Cr43   1.914       .  S
O30         Cr43   2.071       .  S
O30          C31   1.283   1_455  A
C31        O1607   1.257       .  A
C31        C1665   1.466       .  S
O32         Cr41   1.944       .  S
O32          C40   1.243       .  A
O33         Cr41   1.966       .  S
O33          C34   1.263       .  A
C34         O827   1.274       .  A
O35         Cr42   2.020   1_655  S
O35        C1618   1.274       .  A
O36         Cr42   1.952       .  S
O36          C37   1.257       .  A
C37          O38   1.267       .  A
C37         C515   1.466       .  S
O38         Cr43   2.035       .  S
O39         Cr43   1.900       .  S
O39        C1624   1.229   1_455  A
C40         O831   1.229       .  A
C40          C62   1.380       .  S
Cr41        O836   1.774       .  S
Cr42         O44   1.757       .  S
Cr43         O44   1.809       .  S
O44       Cr1625   1.774   1_455  S
O45         Cr63   1.953       .  S
O45         C317   1.257       .  A
O46         Cr63   1.963       .  S
O46          C47   1.243       .  A
C47         O312   1.296       .  A
O48         Cr64   2.073   1_565  S
O48         C575   1.296       .  A
O49         Cr64   2.088       .  S
O49          C50   1.291       .  A
C50          O51   1.249       .  A
C50         C817   1.511       .  S
O51         Cr65   1.914       .  S
O52         Cr65   2.071   1_565  S
O52          C53   1.283       .  A
C53         O573   1.257       .  A
C53         C543   1.466       .  S
O54         Cr63   1.944       .  S
O54          C62   1.243       .  A
O55         Cr63   1.966       .  S
O55          C56   1.263       .  A
C56          O57   1.274       .  A
C56          C78   1.459       .  S
O57        Cr328   2.020       .  S
O58         Cr64   1.952       .  S
O58          C59   1.257       .  A
C59         O852   1.267       .  A
C59         C889   1.466       .  S
O60       Cr1649   2.035       .  S
O60        C1643   1.267       .  A
O61         Cr65   1.900   1_565  S
O61         C590   1.229       .  A
C62         O325   1.229       .  A
Cr63        O330   1.774       .  S
Cr64        O585   2.020   1_545  S
Cr64         O66   1.757   1_545  S
Cr65        O852   2.035       .  S
Cr65         O66   1.809   1_545  S
O66        Cr591   1.774       .  S
O67         Cr85   1.953       .  S
O67          C75   1.257       .  A
O68         Cr85   1.963       .  S
O68          C69   1.243       .  A
C69          O70   1.296       .  A
C69          C94   1.511       .  S
O70         Cr86   2.073       .  S
O71         Cr86   2.088       .  S
O71          C72   1.291       .  A
C72          O73   1.249       .  A
C72         C883   1.511       .  S
O73         Cr87   1.914       .  S
O74         Cr87   2.071       .  S
O74          C75   1.283       .  A
C75         C125   1.466       .  S
O76         Cr85   1.944       .  S
O76          C84   1.243       .  A
O77         Cr85   1.966       .  S
O77          C78   1.263       .  A
C78          O79   1.274       .  A
O79         Cr86   2.020       .  S
O80         Cr86   1.952       .  S
O80          C81   1.257       .  A
C81         O874   1.267       .  A
C81         C823   1.466       .  S
O82       Cr1671   2.035       .  S
O82        C1665   1.267       .  A
O83         Cr87   1.900       .  S
O83          C84   1.229       .  A
C84         C106   1.380       .  S
Cr85         O88   1.774       .  S
Cr86         O88   1.757       .  S
Cr87        O874   2.035       .  S
Cr87         O88   1.809       .  S
O89        Cr107   1.953       .  S
O89         C889   1.257       .  A
O90        Cr107   1.963       .  S
O90         C883   1.243       .  A
C91          O92   1.296       .  A
C91        O1674   1.243       .  A
C91        C1656   1.511       .  S
O92        Cr108   2.072   1_655  S
O93        Cr108   2.088       .  S
O93          C94   1.291       .  A
C94          O95   1.249       .  A
O95        Cr109   1.914       .  S
O96        Cr109   2.071       .  S
O96          C97   1.283   1_455  A
C97        O1673   1.257       .  A
C97        C1643   1.466       .  S
O98        Cr107   1.944       .  S
O98         C634   1.243       .  A
O99        Cr107   1.966       .  S
O99         C100   1.263       .  A
C100        O893   1.274       .  A
C100        C122   1.460       .  S
O101       Cr108   2.020   1_655  S
O101       C1684   1.274       .  A
O102       Cr108   1.952       .  S
O102        C103   1.257       .  A
C103        O104   1.267       .  A
C103        C141   1.466       .  S
O104       Cr109   2.035       .  S
O105       Cr109   1.900       .  S
O105       C2218   1.229   1_455  A
C106        O362   1.243       .  A
C106       O1161   1.229       .  A
Cr107       O902   1.774       .  S
Cr108       O110   1.757       .  S
Cr109       O110   1.809       .  S
O110      Cr1691   1.774   1_455  S
O111       Cr393   1.953       .  S
O111        C119   1.257       .  A
O112       Cr129   1.963       .  S
O112        C641   1.243       .  A
C113        O114   1.296       .  A
C113        O376   1.243       .  A
C113        C402   1.511       .  S
O114       Cr130   2.072       .  S
O115       Cr130   2.088       .  S
O115        C116   1.291       .  A
C116        O117   1.249       .  A
C116        C135   1.511       .  S
O117       Cr131   1.914       .  S
O118       Cr131   2.071       .  S
O118        C119   1.283       .  A
C119        C169   1.466       .  S
O120       Cr129   1.944       .  S
O120        C656   1.243       .  A
O121       Cr129   1.966       .  S
O121        C122   1.263       .  A
C122        O651   1.274       .  A
O123       Cr130   2.020       .  S
O123        C386   1.274       .  A
O124       Cr130   1.952       .  S
O124        C125   1.257       .  A
C125        O126   1.267       .  A
O126       Cr131   2.034       .  S
O127       Cr131   1.900       .  S
O127        C128   1.229       .  A
C128        O384   1.243       .  A
C128        C942   1.380       .  S
Cr129       O639   1.953       .  S
Cr129       O660   1.774   1_545  S
Cr130       O132   1.757       .  S
Cr131       O132   1.809       .  S
O132       Cr393   1.774       .  S
O133       Cr151   1.953       .  S
O133        C141   1.257       .  A
O134       Cr151   1.963       .  S
O134        C135   1.243       .  A
C135        O136   1.296       .  A
O136       Cr152   2.073       .  S
O137       Cr152   2.088       .  S
O137        C138   1.291       .  A
C138        O139   1.249       .  A
C138        C641   1.511       .  S
O139       Cr153   1.914       .  S
O140       Cr153   2.071       .  S
O140        C141   1.283       .  A
O142       Cr151   1.944       .  S
O142        C678   1.243       .  A
O143       Cr151   1.966       .  S
O143        C144   1.263       .  A
C144        O145   1.274       .  A
C144        C166   1.459       .  S
O145       Cr152   2.020       .  S
O146       Cr152   1.952       .  S
O146        C675   1.257       .  A
C147        O148   1.267       .  A
C147        O410   1.257       .  A
C147        C185   1.466       .  S
O148       Cr417   2.035       .  S
O149       Cr417   1.900       .  S
O149        C150   1.229       .  A
C150        O406   1.243       .  A
C150       C1712   1.380   1_455  S
Cr151       O154   1.774       .  S
Cr152       O154   1.757       .  S
Cr153       O676   2.035       .  S
Cr153       O677   1.900       .  S
Cr153       O154   1.809       .  S
O155       Cr173   1.953       .  S
O155       C1747   1.257       .  A
O156       Cr173   1.963       .  S
O156       C1741   1.243       .  A
C157        O158   1.296       .  A
C157        O948   1.243       .  A
C157        C974   1.511       .  S
O158       Cr174   2.072       .  S
O159       Cr174   2.088       .  S
O159        C160   1.291       .  A
C160        O161   1.249       .  A
C160        C707   1.511       .  S
O161       Cr175   1.914       .  S
O162       Cr175   2.071       .  S
O162        C163   1.283       .  A
C163        O947   1.257       .  A
C163        C213   1.466       .  S
O164       Cr173   1.944       .  S
O164        C172   1.243       .  A
O165       Cr173   1.966       .  S
O165        C166   1.263       .  A
C166       O1751   1.274       .  A
O167       Cr174   2.020       .  S
O167        C958   1.274       .  A
O168       Cr174   1.952       .  S
O168        C697   1.257       .  A
C169        O170   1.267       .  A
C169        O432   1.257       .  A
O170       Cr439   2.035       .  S
O171       Cr439   1.900       .  S
O171       C1228   1.229       .  A
C172       O2283   1.229   1_455  A
C172        C722   1.380       .  S
Cr173      O1760   1.774   1_455  S
Cr174       O176   1.757       .  S
Cr175       O698   2.035       .  S
Cr175       O699   1.900       .  S
Cr175       O176   1.809       .  S
O176       Cr965   1.774       .  S
O177       Cr459   1.953       .  S
O177        C185   1.257       .  A
O178       Cr195   1.963       .  S
O178        C707   1.243       .  A
C179        O180   1.296       .  A
C179        O442   1.243       .  A
C179        C424   1.511       .  S
O180       Cr196   2.073       .  S
O181       Cr196   2.088       .  S
O181        C182   1.291       .  A
C182        O183   1.249       .  A
C182       C1741   1.511       .  S
O183       Cr197   1.914       .  S
O184       Cr197   2.071       .  S
O184        C185   1.283       .  A
O186       Cr195   1.944       .  S
O186        C722   1.243       .  A
O187       Cr195   1.966       .  S
O187        C188   1.263       .  A
C188        O717   1.274       .  A
C188        C210   1.459       .  S
O189       Cr196   2.020       .  S
O189        C452   1.274       .  A
O190       Cr196   1.952       .  S
O190       C1775   1.257       .  A
C191        O192   1.267       .  A
C191        O982   1.257       .  A
C191        C229   1.466       .  S
O192       Cr989   2.035       .  S
O193       Cr989   1.900       .  S
O193        C986   1.229       .  A
C194        O450   1.243       .  A
C194       O1777   1.229       .  A
C194        C436   1.380       .  S
Cr195       O705   1.953       .  S
Cr195       O726   1.774   1_545  S
Cr196       O198   1.757       .  S
Cr197      O1776   2.035       .  S
Cr197      O1777   1.900       .  S
Cr197       O198   1.809       .  S
O198       Cr459   1.774       .  S
O199       Cr217   1.953       .  S
O199        C207   1.257       .  A
O200       Cr217   1.963   1_554  S
O200        C201   1.243       .  A
C201        O202   1.296       .  A
C201        C226   1.511       .  S
O202       Cr218   2.073       .  S
O203       Cr218   2.088       .  S
O203        C204   1.291   1_554  A
C204        O205   1.249       .  A
C204       C1807   1.511       .  S
O205       Cr219   1.914       .  S
O206       Cr219   2.071       .  S
O206        C207   1.283       .  A
C207        C257   1.466       .  S
O208       Cr217   1.944       .  S
O208        C744   1.243       .  A
O209       Cr217   1.966   1_554  S
O209        C210   1.263       .  A
C210        O211   1.274       .  A
O211       Cr218   2.020       .  S
O212       Cr218   1.952       .  S
O212       C1797   1.257       .  A
C213        O214   1.267       .  A
C213       O1004   1.257       .  A
O214      Cr1011   2.035   1_554  S
O215      Cr1011   1.900       .  S
O215       C1536   1.229       .  A
C216        O472   1.243       .  A
C216       O2063   1.229       .  A
C216        C238   1.380   1_556  S
Cr217       O220   1.774   1_556  S
Cr218       O220   1.757       .  S
Cr219      O1798   2.035   1_556  S
Cr219      O1799   1.900       .  S
Cr219       O220   1.809   1_556  S
O221       Cr239   1.953       .  S
O221       C1813   1.257       .  A
O222       Cr239   1.963   1_556  S
O222       C1807   1.243       .  A
C223        O224   1.296       .  A
C223       O1014   1.243       .  A
C223        C996   1.511       .  S
O224       Cr240   2.072       .  S
O225       Cr240   2.088       .  S
O225        C226   1.291   1_556  A
C226        O227   1.249       .  A
O227       Cr241   1.914       .  S
O228       Cr241   2.071       .  S
O228        C229   1.283       .  A
C229       O1013   1.257       .  A
O230       Cr239   1.944       .  S
O230        C238   1.243       .  A
O231       Cr239   1.966   1_556  S
O231        C232   1.263       .  A
C232       O1817   1.274       .  A
C232        C254   1.460       .  S
O233       Cr240   2.020       .  S
O233       C1024   1.274       .  A
O234       Cr240   1.952       .  S
O234        C235   1.257       .  A
C235        O236   1.267       .  A
O236       Cr241   2.035   1_556  S
O237       Cr241   1.900   1_556  S
O237       C1030   1.229   1_556  A
C238       O1821   1.229   1_454  A
Cr239      O1826   1.774   1_454  S
Cr240       O242   1.757       .  S
Cr241       O242   1.809   1_554  S
O242      Cr1031   1.774   1_556  S
O243       Cr261   1.953       .  S
O243        C515   1.257       .  A
O244       Cr261   1.963       .  S
O244        C245   1.243       .  A
C245        O510   1.296       .  A
O246       Cr262   2.072   1_565  S
O246        C773   1.296       .  A
O247       Cr262   2.088       .  S
O247        C248   1.291       .  A
C248        O249   1.249       .  A
O249       Cr263   1.914       .  S
O250       Cr263   2.071   1_565  S
O250        C251   1.283       .  A
C251        O771   1.257       .  A
C251        C565   1.466       .  S
O252       Cr261   1.944       .  S
O252        C260   1.243       .  A
O253       Cr261   1.966       .  S
O253        C254   1.263       .  A
C254        O255   1.274       .  A
O255       Cr526   2.020       .  S
O256       Cr262   1.952       .  S
O256        C257   1.257       .  A
C257        O258   1.267       .  A
O258       Cr263   2.034       .  S
O259       Cr263   1.900   1_565  S
O259        C788   1.229       .  A
C260        O523   1.229       .  A
C260       C1602   1.380   1_455  S
Cr261       O528   1.774       .  S
Cr262       O783   2.020   1_545  S
Cr262       O264   1.757   1_545  S
Cr263       O264   1.809   1_545  S
O264       Cr789   1.774       .  S
O265       Cr283   1.953       .  S
O265        C273   1.257       .  A
O266       Cr283   1.963       .  S
O266        C267   1.243       .  A
C267        O268   1.296       .  A
C267        C512   1.511       .  S
O268       Cr284   2.073       .  S
O269       Cr284   2.088       .  S
O269        C270   1.291       .  A
C270        O271   1.249       .  A
C270        C509   1.511       .  S
O271       Cr285   1.914       .  S
O272       Cr285   2.071       .  S
O272        C273   1.283       .  A
C273        C499   1.466       .  S
O274       Cr283   1.944       .  S
O274        C282   1.243       .  A
O275       Cr283   1.966       .  S
O275        C276   1.263       .  A
C276        O277   1.274       .  A
C276        C298   1.459       .  S
O277       Cr284   2.020       .  S
O278       Cr284   1.952       .  S
O278        C279   1.257       .  A
C279        O280   1.267       .  A
C279        C581   1.466       .  S
O280       Cr285   2.035       .  S
O281       Cr285   1.900       .  S
O281        C282   1.229       .  A
C282       C1316   1.380       .  S
Cr283       O286   1.774       .  S
Cr284       O286   1.757       .  S
Cr285       O286   1.809       .  S
O287       Cr305   1.953       .  S
O287       C1087   1.257       .  A
O288       Cr305   1.963       .  S
O288       C1081   1.243       .  A
C289       O1872   1.243       .  A
C289        O290   1.296       .  A
C289       C1898   1.511       .  S
O290       Cr306   2.072   1_655  S
O291       Cr306   2.088       .  S
O291        C292   1.291       .  A
C292        O293   1.249       .  A
C292        C311   1.511       .  S
O293       Cr307   1.914       .  S
O294       Cr307   2.071       .  S
O294        C295   1.283   1_455  A
C295       O1871   1.257       .  A
C295       C1929   1.466       .  S
O296       Cr305   1.944       .  S
O296        C304   1.243       .  A
O297       Cr305   1.966       .  S
O297        C298   1.263       .  A
C298       O1091   1.274       .  A
O299       Cr306   2.020   1_655  S
O299       C1882   1.274       .  A
O300       Cr306   1.952       .  S
O300        C301   1.257       .  A
C301        O302   1.267       .  A
C301        C779   1.466       .  S
O302       Cr307   2.035       .  S
O303       Cr307   1.900       .  S
O303       C1888   1.229   1_455  A
C304       O1095   1.229       .  A
C304        C326   1.380       .  S
Cr305      O1100   1.774       .  S
Cr306       O308   1.757       .  S
Cr307       O308   1.809       .  S
O308      Cr1889   1.774   1_455  S
O309       Cr327   1.953       .  S
O309        C581   1.257       .  A
O310       Cr327   1.963       .  S
O310        C311   1.243       .  A
C311        O576   1.296       .  A
O312       Cr328   2.073       .  S
O313       Cr328   2.088       .  S
O313        C314   1.291       .  A
C314        O315   1.249       .  A
C314       C1081   1.511       .  S
O315       Cr329   1.914       .  S
O316       Cr329   2.071       .  S
O316        C317   1.283       .  A
O318       Cr327   1.944       .  S
O318        C326   1.243       .  A
O319       Cr327   1.966       .  S
O319        C320   1.263       .  A
C320        O321   1.274       .  A
C320        C342   1.459       .  S
O321       Cr592   2.020       .  S
O322       Cr328   1.952       .  S
O322        C323   1.257       .  A
C323       O1116   1.267       .  A
C323       C1153   1.466       .  S
O324      Cr1913   2.035       .  S
O324       C1907   1.267       .  A
O325       Cr329   1.900       .  S
C326        O589   1.229       .  A
Cr327       O594   1.774       .  S
Cr328       O330   1.757       .  S
Cr329      O1116   2.035       .  S
Cr329       O330   1.809       .  S
O331       Cr349   1.953       .  S
O331        C339   1.257       .  A
O332       Cr349   1.963       .  S
O332        C333   1.243       .  A
C333        O334   1.296       .  A
C333        C358   1.511       .  S
O334       Cr350   2.073       .  S
O335       Cr350   2.088       .  S
O335        C336   1.291       .  A
C336        O337   1.249       .  A
C336       C1147   1.511       .  S
O337       Cr351   1.914       .  S
O338       Cr351   2.071       .  S
O338        C339   1.283       .  A
C339        C389   1.466       .  S
O340       Cr349   1.944       .  S
O340        C348   1.243       .  A
O341       Cr349   1.966       .  S
O341        C342   1.263       .  A
C342        O343   1.274       .  A
O343       Cr350   2.020       .  S
O344       Cr350   1.952       .  S
O344        C345   1.257       .  A
C345       O1138   1.267       .  A
C345       C1087   1.466       .  S
O346      Cr1935   2.035       .  S
O346       C1929   1.267       .  A
O347       Cr351   1.900       .  S
O347        C348   1.229       .  A
C348        C370   1.380       .  S
Cr349       O352   1.774       .  S
Cr350       O352   1.757       .  S
Cr351      O1138   2.035       .  S
Cr351       O352   1.809       .  S
O353       Cr371   1.953       .  S
O353       C1153   1.257       .  A
O354       Cr371   1.963       .  S
O354       C1147   1.243       .  A
C355       O1938   1.243       .  A
C355        O356   1.296       .  A
C355       C1920   1.511       .  S
O356       Cr372   2.072   1_655  S
O357       Cr372   2.088       .  S
O357        C358   1.291       .  A
C358        O359   1.249       .  A
O359       Cr373   1.914       .  S
O360       Cr373   2.071       .  S
O360        C361   1.283   1_455  A
C361       O1937   1.257       .  A
C361       C1907   1.466       .  S
O362       Cr371   1.944       .  S
O363       Cr371   1.966       .  S
O363        C364   1.263       .  A
C364       O1157   1.274       .  A
C364        C386   1.460       .  S
O365       Cr372   2.020   1_655  S
O365       C1948   1.274       .  A
O366       Cr372   1.952       .  S
O366        C367   1.257       .  A
C367        O368   1.267       .  A
C367        C405   1.466       .  S
O368       Cr373   2.035       .  S
O369       Cr373   1.900       .  S
O369       C1690   1.229   1_455  A
C370        O626   1.243       .  A
C370       O1425   1.229       .  A
Cr371      O1166   1.774       .  S
Cr372       O374   1.757       .  S
Cr373       O374   1.809       .  S
O374      Cr1955   1.774   1_455  S
O375       Cr657   1.953       .  S
O375        C383   1.257       .  A
O376       Cr393   1.963       .  S
C377        O640   1.243       .  A
C377        O378   1.296       .  A
C377        C666   1.511       .  S
O378       Cr394   2.072       .  S
O379       Cr394   2.088       .  S
O379        C380   1.291       .  A
C380        O381   1.249       .  A
C380        C399   1.511       .  S
O381       Cr395   1.914       .  S
O382       Cr395   2.071       .  S
O382        C383   1.283       .  A
C383        C433   1.466       .  S
O384       Cr393   1.944       .  S
O385       Cr393   1.966       .  S
O385        C386   1.263       .  A
O387       Cr394   2.020       .  S
O387        C650   1.274       .  A
O388       Cr394   1.952       .  S
O388        C389   1.257       .  A
C389        O390   1.267       .  A
O390       Cr395   2.034       .  S
O391       Cr395   1.900       .  S
O391        C392   1.229       .  A
C392        O648   1.243       .  A
C392       C1206   1.380       .  S
Cr394       O396   1.757       .  S
Cr395       O396   1.809       .  S
O396       Cr657   1.774       .  S
O397       Cr415   1.953       .  S
O397        C405   1.257       .  A
O398       Cr415   1.963       .  S
O398        C399   1.243       .  A
C399        O400   1.296       .  A
O400       Cr416   2.073       .  S
O401       Cr416   2.088       .  S
O401        C402   1.291       .  A
C402        O403   1.249       .  A
O403       Cr417   1.914       .  S
O404       Cr417   2.071       .  S
O404        C405   1.283       .  A
O406       Cr415   1.944       .  S
O407       Cr415   1.966       .  S
O407        C408   1.263       .  A
C408        O409   1.274       .  A
C408        C430   1.459       .  S
O409       Cr416   2.020       .  S
O410       Cr416   1.952       .  S
C411        O674   1.257       .  A
C411        O412   1.267       .  A
C411        C449   1.466       .  S
O412       Cr681   2.035       .  S
O413       Cr681   1.900       .  S
O413        C414   1.229       .  A
C414        O670   1.243       .  A
C414       C1976   1.380   1_455  S
Cr415       O418   1.774       .  S
Cr416       O418   1.757       .  S
Cr417       O418   1.809       .  S
O419       Cr437   1.953       .  S
O419       C2011   1.257       .  A
O420       Cr437   1.963       .  S
O420       C2005   1.243       .  A
C421       O1212   1.243       .  A
C421        O422   1.296       .  A
C421       C1238   1.511       .  S
O422       Cr438   2.072       .  S
O423       Cr438   2.088       .  S
O423        C424   1.291       .  A
C424        O425   1.249       .  A
O425       Cr439   1.914       .  S
O426       Cr439   2.071       .  S
O426        C427   1.283       .  A
C427       O1211   1.257       .  A
C427        C477   1.466       .  S
O428       Cr437   1.944       .  S
O428        C436   1.243       .  A
O429       Cr437   1.966       .  S
O429        C430   1.263       .  A
C430       O2015   1.274       .  A
O431       Cr438   2.020       .  S
O431       C1222   1.274       .  A
O432       Cr438   1.952       .  S
C433        O696   1.257       .  A
C433        O434   1.267       .  A
O434       Cr703   2.035       .  S
O435       Cr703   1.900       .  S
O435       C1492   1.229       .  A
C436       O1755   1.229   1_455  A
Cr437      O2024   1.774   1_455  S
Cr438       O440   1.757       .  S
Cr439       O440   1.809       .  S
O440      Cr1229   1.774       .  S
O441       Cr723   1.953       .  S
O441        C449   1.257       .  A
O442       Cr459   1.963       .  S
C443        O706   1.243       .  A
C443        O444   1.296       .  A
C443        C688   1.511       .  S
O444       Cr460   2.073       .  S
O445       Cr460   2.088       .  S
O445        C446   1.291       .  A
C446        O447   1.249       .  A
C446       C2005   1.511       .  S
O447       Cr461   1.914       .  S
O448       Cr461   2.071       .  S
O448        C449   1.283       .  A
O450       Cr459   1.944       .  S
O451       Cr459   1.966       .  S
O451        C452   1.263       .  A
C452        C474   1.459       .  S
O453       Cr460   2.020       .  S
O453        C716   1.274       .  A
O454       Cr460   1.952       .  S
O454       C2039   1.257       .  A
C455       O1246   1.257       .  A
C455        O456   1.267       .  A
C455        C493   1.466       .  S
O456      Cr1253   2.035       .  S
O457      Cr1253   1.900       .  S
O457       C1250   1.229       .  A
C458        O714   1.243       .  A
C458       O2041   1.229       .  A
C458        C700   1.380       .  S
Cr460       O462   1.757       .  S
Cr461      O2040   2.035       .  S
Cr461      O2041   1.900       .  S
Cr461       O462   1.809       .  S
O462       Cr723   1.774       .  S
O463       Cr481   1.953       .  S
O463        C471   1.257       .  A
O464       Cr481   1.963   1_554  S
O464        C465   1.243       .  A
C465        O466   1.296       .  A
C465        C490   1.511       .  S
O466       Cr482   2.073       .  S
O467       Cr482   2.088       .  S
O467        C468   1.291   1_554  A
C468        O469   1.249       .  A
C468       C2071   1.511       .  S
O469       Cr483   1.914       .  S
O470       Cr483   2.071       .  S
O470        C471   1.283       .  A
C471        C521   1.466       .  S
O472       Cr481   1.944       .  S
O473       Cr481   1.966   1_554  S
O473        C474   1.263       .  A
C474        O475   1.274       .  A
O475       Cr482   2.020       .  S
O476       Cr482   1.952       .  S
O476       C2061   1.257       .  A
C477       O1268   1.257       .  A
C477        O478   1.267       .  A
O478      Cr1275   2.035   1_554  S
O479      Cr1275   1.900       .  S
O479       C1008   1.229       .  A
C480        O736   1.243       .  A
C480       O2327   1.229       .  A
C480        C502   1.380   1_556  S
Cr481       O484   1.774   1_556  S
Cr482       O484   1.757       .  S
Cr483      O2062   2.035   1_556  S
Cr483      O2063   1.900       .  S
Cr483       O484   1.809   1_556  S
O485       Cr503   1.953       .  S
O485       C2077   1.257       .  A
O486       Cr503   1.963   1_556  S
O486       C2071   1.243       .  A
C487       O1278   1.243       .  A
C487        O488   1.296       .  A
C487       C1260   1.511       .  S
O488       Cr504   2.072       .  S
O489       Cr504   2.088       .  S
O489        C490   1.291   1_556  A
C490        O491   1.249       .  A
O491       Cr505   1.914       .  S
O492       Cr505   2.071       .  S
O492        C493   1.283       .  A
C493       O1277   1.257       .  A
O494       Cr503   1.944       .  S
O494        C502   1.243       .  A
O495       Cr503   1.966   1_556  S
O495        C496   1.263       .  A
C496       O2081   1.274       .  A
C496        C518   1.460       .  S
O497       Cr504   2.020       .  S
O497       C1288   1.274       .  A
O498       Cr504   1.952       .  S
O498        C499   1.257       .  A
C499        O500   1.267       .  A
O500       Cr505   2.035   1_556  S
O501       Cr505   1.900   1_556  S
O501       C1294   1.229   1_556  A
C502       O2085   1.229   1_454  A
Cr503      O2090   1.774   1_454  S
Cr504       O506   1.757       .  S
Cr505       O506   1.809   1_554  S
O506      Cr1295   1.774   1_556  S
O507       Cr525   1.953       .  S
O507        C779   1.257       .  A
O508       Cr525   1.963       .  S
O508        C509   1.243       .  A
C509        O774   1.296       .  A
O510       Cr526   2.072       .  S
O511       Cr526   2.088       .  S
O511        C512   1.291       .  A
C512        O513   1.249       .  A
O513       Cr527   1.914       .  S
O514       Cr527   2.071       .  S
O514        C515   1.283       .  A
O516       Cr525   1.944       .  S
O516        C524   1.243       .  A
O517       Cr525   1.966       .  S
O517        C518   1.263       .  A
C518        O519   1.274       .  A
O519       Cr790   2.020       .  S
O520       Cr526   1.952       .  S
O520        C521   1.257       .  A
C521        O522   1.267       .  A
O522       Cr527   2.034       .  S
O523       Cr527   1.900       .  S
C524        O787   1.229       .  A
C524       C1866   1.380   1_455  S
Cr525       O792   1.774       .  S
Cr526       O528   1.757       .  S
Cr527       O528   1.809       .  S
O529       Cr547   1.953       .  S
O529        C537   1.257       .  A
O530       Cr547   1.963       .  S
O530        C531   1.243       .  A
C531        O532   1.296       .  A
C531        C776   1.511       .  S
O532       Cr548   2.073       .  S
O533       Cr548   2.088       .  S
O533        C534   1.291       .  A
C534        O535   1.249       .  A
C534        C773   1.511       .  S
O535       Cr549   1.914       .  S
O536       Cr549   2.071       .  S
O536        C537   1.283       .  A
C537        C763   1.466       .  S
O538       Cr547   1.944       .  S
O538        C546   1.243       .  A
O539       Cr547   1.966       .  S
O539        C540   1.263       .  A
C540        O541   1.274       .  A
C540        C562   1.459       .  S
O541       Cr548   2.020       .  S
O542       Cr548   1.952       .  S
O542        C543   1.257       .  A
C543        O544   1.267       .  A
O544       Cr549   2.035       .  S
O545       Cr549   1.900       .  S
O545        C546   1.229       .  A
C546       C1580   1.380       .  S
Cr547       O550   1.774       .  S
Cr548       O550   1.757       .  S
Cr549       O550   1.809       .  S
O551       Cr569   1.953       .  S
O551       C1351   1.257       .  A
O552       Cr569   1.963       .  S
O552       C1345   1.243       .  A
C553       O2136   1.243       .  A
C553        O554   1.296       .  A
C553       C2162   1.511       .  S
O554       Cr570   2.072   1_655  S
O555       Cr570   2.088       .  S
O555        C556   1.291       .  A
C556        O557   1.249       .  A
C556        C575   1.511       .  S
O557       Cr571   1.914       .  S
O558       Cr571   2.071       .  S
O558        C559   1.283   1_455  A
C559       O2135   1.257       .  A
C559       C2193   1.466       .  S
O560       Cr569   1.944       .  S
O560        C568   1.243       .  A
O561       Cr569   1.966       .  S
O561        C562   1.263       .  A
C562       O1355   1.274       .  A
O563       Cr570   2.020   1_655  S
O563       C2146   1.274       .  A
O564       Cr570   1.952       .  S
O564        C565   1.257       .  A
C565        O566   1.267       .  A
O566       Cr571   2.035       .  S
O567       Cr571   1.900       .  S
O567       C2152   1.229   1_455  A
C568       O1359   1.229       .  A
C568        C590   1.380       .  S
Cr569      O1364   1.774       .  S
Cr570       O572   1.757       .  S
Cr571       O572   1.809       .  S
O572      Cr2153   1.774   1_455  S
O573       Cr591   1.953       .  S
O574       Cr591   1.963       .  S
O574        C575   1.243       .  A
O576       Cr592   2.073       .  S
O577       Cr592   2.088       .  S
O577        C578   1.291       .  A
C578        O579   1.249       .  A
C578       C1345   1.511       .  S
O579       Cr593   1.914       .  S
O580       Cr593   2.071       .  S
O580        C581   1.283       .  A
O582       Cr591   1.944       .  S
O582        C590   1.243       .  A
O583       Cr591   1.966       .  S
O583        C584   1.263       .  A
C584        O585   1.274       .  A
C584        C606   1.459       .  S
O586       Cr592   1.952       .  S
O586        C587   1.257       .  A
C587       O1380   1.267       .  A
C587       C1417   1.466       .  S
O588      Cr2177   2.035       .  S
O588       C2171   1.267       .  A
O589       Cr593   1.900       .  S
Cr592       O594   1.757       .  S
Cr593      O1380   2.035       .  S
Cr593       O594   1.809       .  S
O595       Cr613   1.953       .  S
O595        C603   1.257       .  A
O596       Cr613   1.963       .  S
O596        C597   1.243       .  A
C597        O598   1.296       .  A
C597        C622   1.511       .  S
O598       Cr614   2.073       .  S
O599       Cr614   2.088       .  S
O599        C600   1.291       .  A
C600        O601   1.249       .  A
C600       C1411   1.511       .  S
O601       Cr615   1.914       .  S
O602       Cr615   2.071       .  S
O602        C603   1.283       .  A
C603        C653   1.466       .  S
O604       Cr613   1.944       .  S
O604        C612   1.243       .  A
O605       Cr613   1.966       .  S
O605        C606   1.263       .  A
C606        O607   1.274       .  A
O607       Cr614   2.020       .  S
O608       Cr614   1.952       .  S
O608        C609   1.257       .  A
C609       O1402   1.267       .  A
C609       C1351   1.466       .  S
O610      Cr2199   2.035       .  S
O610       C2193   1.267       .  A
O611       Cr615   1.900       .  S
O611        C612   1.229       .  A
C612        C634   1.380   1_565  S
Cr613       O616   1.774       .  S
Cr614       O616   1.757       .  S
Cr615      O1402   2.035       .  S
Cr615       O616   1.809       .  S
O617       Cr635   1.953       .  S
O617       C1417   1.257       .  A
O618       Cr635   1.963       .  S
O618       C1411   1.243       .  A
C619       O2202   1.243       .  A
C619        O620   1.296       .  A
C619       C2184   1.511       .  S
O620       Cr636   2.072   1_655  S
O621       Cr636   2.088       .  S
O621        C622   1.291       .  A
C622        O623   1.249       .  A
O623       Cr637   1.914       .  S
O624       Cr637   2.071       .  S
O624        C625   1.283   1_455  A
C625       O2201   1.257       .  A
C625       C2171   1.466       .  S
O626       Cr635   1.944       .  S
O627       Cr635   1.966       .  S
O627        C628   1.263       .  A
C628       O1421   1.274       .  A
C628        C650   1.460       .  S
O629       Cr636   2.020   1_655  S
O629       C2212   1.274       .  A
O630       Cr636   1.952       .  S
O630        C631   1.257       .  A
C631        O632   1.267       .  A
C631        C669   1.466       .  S
O632       Cr637   2.035       .  S
O633       Cr637   1.900       .  S
O633       C1954   1.229   1_455  A
C634        O897   1.229       .  A
Cr635      O1430   1.774       .  S
Cr636       O638   1.757       .  S
Cr637       O638   1.809       .  S
O638      Cr2219   1.774   1_455  S
O639        C647   1.257   1_545  A
O640       Cr657   1.963       .  S
C641        O642   1.296   1_545  A
O642       Cr658   2.072       .  S
O643       Cr658   2.088       .  S
O643        C644   1.291       .  A
C644        O645   1.249       .  A
C644        C663   1.511       .  S
O645       Cr659   1.914       .  S
O646       Cr659   2.071       .  S
O646        C647   1.283       .  A
C647        C697   1.466   1_565  S
O648       Cr657   1.944       .  S
O649       Cr657   1.966       .  S
O649        C650   1.263       .  A
O651       Cr658   2.020   1_545  S
O652       Cr658   1.952       .  S
O652        C653   1.257       .  A
C653        O654   1.267       .  A
O654       Cr659   2.034       .  S
O655       Cr659   1.900       .  S
O655        C656   1.229   1_565  A
C656       C1470   1.380       .  S
Cr658       O660   1.757       .  S
Cr659       O660   1.809       .  S
O661       Cr679   1.953       .  S
O661        C669   1.257       .  A
O662       Cr679   1.963       .  S
O662        C663   1.243       .  A
C663        O664   1.296       .  A
O664       Cr680   2.073       .  S
O665       Cr680   2.088       .  S
O665        C666   1.291       .  A
C666        O667   1.249       .  A
O667       Cr681   1.914       .  S
O668       Cr681   2.071       .  S
O668        C669   1.283       .  A
O670       Cr679   1.944       .  S
O671       Cr679   1.966       .  S
O671        C672   1.263       .  A
C672        O673   1.274       .  A
C672        C694   1.459       .  S
O673       Cr680   2.020       .  S
O674       Cr680   1.952       .  S
C675        O676   1.267       .  A
C675        C713   1.466   1_545  S
O677        C678   1.229       .  A
C678       C2240   1.380   1_455  S
Cr679       O682   1.774       .  S
Cr680       O682   1.757       .  S
Cr681       O682   1.809       .  S
O683       Cr701   1.953       .  S
O683       C2275   1.257       .  A
O684       Cr701   1.963       .  S
O684       C2269   1.243       .  A
C685       O1476   1.243       .  A
C685        O686   1.296       .  A
C685       C1502   1.511       .  S
O686       Cr702   2.072       .  S
O687       Cr702   2.088       .  S
O687        C688   1.291       .  A
C688        O689   1.249       .  A
O689       Cr703   1.914       .  S
O690       Cr703   2.071       .  S
O690        C691   1.283       .  A
C691       O1475   1.257       .  A
C691        C741   1.466       .  S
O692       Cr701   1.944       .  S
O692        C700   1.243       .  A
O693       Cr701   1.966       .  S
O693        C694   1.263       .  A
C694       O2279   1.274       .  A
O695       Cr702   2.020       .  S
O695       C1486   1.274       .  A
O696       Cr702   1.952       .  S
C697        O698   1.267       .  A
O699        C964   1.229       .  A
C700       O2019   1.229   1_455  A
Cr701      O2288   1.774   1_455  S
Cr702       O704   1.757       .  S
Cr703       O704   1.809       .  S
O704      Cr1493   1.774       .  S
O705        C713   1.257   1_545  A
O706       Cr723   1.963       .  S
C707        O708   1.296   1_545  A
O708       Cr724   2.073       .  S
O709       Cr724   2.088       .  S
O709        C710   1.291       .  A
C710        O711   1.249       .  A
C710       C2269   1.511       .  S
O711       Cr725   1.914       .  S
O712       Cr725   2.071       .  S
O712        C713   1.283       .  A
O714       Cr723   1.944       .  S
O715       Cr723   1.966       .  S
O715        C716   1.263       .  A
C716        C738   1.459       .  S
O717       Cr724   2.020   1_545  S
O718       Cr724   1.952       .  S
O718       C2303   1.257       .  A
C719       O1510   1.257       .  A
C719        O720   1.267       .  A
C719        C757   1.466       .  S
O720      Cr1517   2.035       .  S
O721      Cr1517   1.900       .  S
O721       C1514   1.229   1_565  A
C722       O2305   1.229   1_545  A
Cr724       O726   1.757       .  S
Cr725      O2304   2.035       .  S
Cr725      O2305   1.900       .  S
Cr725       O726   1.809       .  S
O727       Cr745   1.953       .  S
O727        C735   1.257       .  A
O728       Cr745   1.963   1_554  S
O728        C729   1.243       .  A
C729        O730   1.296       .  A
C729        C754   1.511       .  S
O730       Cr746   2.073       .  S
O731       Cr746   2.088       .  S
O731        C732   1.291   1_554  A
C732        O733   1.249       .  A
C732       C2335   1.511       .  S
O733       Cr747   1.914       .  S
O734       Cr747   2.071       .  S
O734        C735   1.283       .  A
C735        C785   1.466       .  S
O736       Cr745   1.944       .  S
O737       Cr745   1.966   1_554  S
O737        C738   1.263       .  A
C738        O739   1.274       .  A
O739       Cr746   2.020       .  S
O740       Cr746   1.952       .  S
O740       C2325   1.257       .  A
C741       O1532   1.257       .  A
C741        O742   1.267       .  A
O742      Cr1539   2.035   1_554  S
O743      Cr1539   1.900       .  S
O743       C1272   1.229       .  A
C744       O1799   1.229       .  A
C744        C766   1.380   1_546  S
Cr745       O748   1.774   1_556  S
Cr746       O748   1.757       .  S
Cr747      O2326   2.035   1_556  S
Cr747      O2327   1.900       .  S
Cr747       O748   1.809   1_556  S
O749       Cr767   1.953       .  S
O749       C2341   1.257       .  A
O750       Cr767   1.963   1_556  S
O750       C2335   1.243       .  A
C751       O1542   1.243       .  A
C751        O752   1.296       .  A
C751       C1524   1.511       .  S
O752       Cr768   2.072       .  S
O753       Cr768   2.088       .  S
O753        C754   1.291   1_556  A
C754        O755   1.249       .  A
O755       Cr769   1.914       .  S
O756       Cr769   2.071       .  S
O756        C757   1.283       .  A
C757       O1541   1.257       .  A
O758       Cr767   1.944       .  S
O758        C766   1.243       .  A
O759       Cr767   1.966   1_556  S
O759        C760   1.263       .  A
C760       O2345   1.274       .  A
C760        C782   1.460       .  S
O761       Cr768   2.020       .  S
O761       C1552   1.274       .  A
O762       Cr768   1.952       .  S
O762        C763   1.257       .  A
C763        O764   1.267       .  A
O764       Cr769   2.035   1_556  S
O765       Cr769   1.900   1_556  S
O765       C1558   1.229   1_556  A
C766       O2349   1.229   1_454  A
Cr767      O2354   1.774   1_454  S
Cr768       O770   1.757       .  S
Cr769       O770   1.809   1_554  S
O770      Cr1559   1.774   1_556  S
O771       Cr789   1.953       .  S
O772       Cr789   1.963       .  S
O772        C773   1.243       .  A
O774       Cr790   2.072       .  S
O775       Cr790   2.088       .  S
O775        C776   1.291       .  A
C776        O777   1.249       .  A
O777       Cr791   1.914       .  S
O778       Cr791   2.071       .  S
O778        C779   1.283       .  A
O780       Cr789   1.944       .  S
O780        C788   1.243       .  A
O781       Cr789   1.966       .  S
O781        C782   1.263       .  A
C782        O783   1.274       .  A
O784       Cr790   1.952       .  S
O784        C785   1.257       .  A
C785        O786   1.267       .  A
O786       Cr791   2.034       .  S
O787       Cr791   1.900       .  S
C788       C2130   1.380   1_455  S
Cr790       O792   1.757       .  S
Cr791       O792   1.809       .  S
O793       Cr811   1.953       .  S
O793        C801   1.257       .  A
O794       Cr811   1.963       .  S
O794        C795   1.243       .  A
C795        O796   1.296       .  A
C795       C1040   1.511       .  S
O796       Cr812   2.073       .  S
O797       Cr812   2.088       .  S
O797        C798   1.291       .  A
C798        O799   1.249       .  A
C798       C1037   1.511       .  S
O799       Cr813   1.914       .  S
O800       Cr813   2.071       .  S
O800        C801   1.283       .  A
C801       C1027   1.466       .  S
O802       Cr811   1.944       .  S
O802        C810   1.243       .  A
O803       Cr811   1.966       .  S
O803        C804   1.263       .  A
C804        O805   1.274       .  A
C804        C826   1.459       .  S
O805       Cr812   2.020       .  S
O806       Cr812   1.952       .  S
O806        C807   1.257       .  A
C807        O808   1.267       .  A
C807       C1109   1.466       .  S
O808       Cr813   2.035       .  S
O809       Cr813   1.900       .  S
O809        C810   1.229       .  A
C810       C1844   1.380       .  S
Cr811       O814   1.774       .  S
Cr812       O814   1.757       .  S
Cr813       O814   1.809       .  S
O815       Cr833   1.953       .  S
O815       C1615   1.257       .  A
O816       Cr833   1.963       .  S
O816       C1609   1.243       .  A
C817        O818   1.296       .  A
O818       Cr834   2.072       .  S
O819       Cr834   2.088       .  S
O819        C820   1.291       .  A
C820        O821   1.249       .  A
C820        C839   1.511       .  S
O821       Cr835   1.914       .  S
O822       Cr835   2.071       .  S
O822        C823   1.283       .  A
O824       Cr833   1.944       .  S
O824        C832   1.243       .  A
O825       Cr833   1.966       .  S
O825        C826   1.263       .  A
C826       O1619   1.274       .  A
O827       Cr834   2.020       .  S
O828       Cr834   1.952       .  S
O828        C829   1.257       .  A
C829        O830   1.267       .  A
C829       C1307   1.466       .  S
O830       Cr835   2.035       .  S
O831       Cr835   1.900       .  S
C832       O1623   1.229       .  A
C832        C854   1.380       .  S
Cr833      O1628   1.774       .  S
Cr834       O836   1.757       .  S
Cr835       O836   1.809       .  S
O837       Cr855   1.953       .  S
O837       C1109   1.257       .  A
O838       Cr855   1.963       .  S
O838        C839   1.243       .  A
C839       O1104   1.296       .  A
O840       Cr856   2.073   1_565  S
O840       C1367   1.296       .  A
O841       Cr856   2.088       .  S
O841        C842   1.291       .  A
C842        O843   1.249       .  A
C842       C1609   1.511       .  S
O843       Cr857   1.914       .  S
O844       Cr857   2.071   1_565  S
O844        C845   1.283       .  A
C845       O1365   1.257       .  A
C845       C1335   1.466       .  S
O846       Cr855   1.944       .  S
O846        C854   1.243       .  A
O847       Cr855   1.966       .  S
O847        C848   1.263       .  A
C848        O849   1.274       .  A
C848        C870   1.459       .  S
O849      Cr1120   2.020       .  S
O850       Cr856   1.952       .  S
O850        C851   1.257       .  A
C851       O1644   1.267       .  A
C851       C1681   1.466       .  S
O853       Cr857   1.900   1_565  S
O853       C1382   1.229       .  A
C854       O1117   1.229       .  A
Cr855      O1122   1.774       .  S
Cr856      O1377   2.020   1_545  S
Cr856       O858   1.757   1_545  S
Cr857      O1644   2.035       .  S
Cr857       O858   1.809   1_545  S
O858      Cr1383   1.774       .  S
O859       Cr877   1.953       .  S
O859        C867   1.257       .  A
O860       Cr877   1.963       .  S
O860        C861   1.243       .  A
C861        O862   1.296       .  A
C861        C886   1.511       .  S
O862       Cr878   2.073       .  S
O863       Cr878   2.088       .  S
O863        C864   1.291       .  A
C864        O865   1.249       .  A
C864       C1675   1.511       .  S
O865       Cr879   1.914       .  S
O866       Cr879   2.071       .  S
O866        C867   1.283       .  A
C867        C917   1.466       .  S
O868       Cr877   1.944       .  S
O868        C876   1.243       .  A
O869       Cr877   1.966       .  S
O869        C870   1.263       .  A
C870        O871   1.274       .  A
O871       Cr878   2.020       .  S
O872       Cr878   1.952       .  S
O872        C873   1.257       .  A
C873       O1666   1.267       .  A
C873       C1615   1.466       .  S
O875       Cr879   1.900       .  S
O875        C876   1.229       .  A
C876        C898   1.380       .  S
Cr877       O880   1.774       .  S
Cr878       O880   1.757       .  S
Cr879      O1666   2.035       .  S
Cr879       O880   1.809       .  S
O881       Cr899   1.953       .  S
O881       C1681   1.257       .  A
O882       Cr899   1.963       .  S
O882       C1675   1.243       .  A
C883        O884   1.296       .  A
O884       Cr900   2.072       .  S
O885       Cr900   2.088       .  S
O885        C886   1.291       .  A
C886        O887   1.249       .  A
O887       Cr901   1.914       .  S
O888       Cr901   2.071       .  S
O888        C889   1.283       .  A
O890       Cr899   1.944       .  S
O890       C1426   1.243       .  A
O891       Cr899   1.966       .  S
O891        C892   1.263       .  A
C892       O1685   1.274       .  A
C892        C914   1.460       .  S
O893       Cr900   2.020       .  S
O894       Cr900   1.952       .  S
O894        C895   1.257       .  A
C895        O896   1.267       .  A
C895        C933   1.466       .  S
O896       Cr901   2.035       .  S
O897       Cr901   1.900       .  S
C898       O1154   1.243       .  A
C898       O1953   1.229       .  A
Cr899      O1694   1.774       .  S
Cr900       O902   1.757       .  S
Cr901       O902   1.809       .  S
O903      Cr1185   1.953       .  S
O903        C911   1.257       .  A
O904       Cr921   1.963       .  S
O904       C1433   1.243       .  A
C905       O1168   1.243       .  A
C905        O906   1.296       .  A
C905       C1194   1.511       .  S
O906       Cr922   2.072       .  S
O907       Cr922   2.088       .  S
O907        C908   1.291       .  A
C908        O909   1.249       .  A
C908        C927   1.511       .  S
O909       Cr923   1.914       .  S
O910       Cr923   2.071       .  S
O910        C911   1.283       .  A
C911        C961   1.466       .  S
O912       Cr921   1.944       .  S
O912       C1448   1.243       .  A
O913       Cr921   1.966       .  S
O913        C914   1.263       .  A
C914       O1443   1.274       .  A
O915       Cr922   2.020       .  S
O915       C1178   1.274       .  A
O916       Cr922   1.952       .  S
O916        C917   1.257       .  A
C917        O918   1.267       .  A
O918       Cr923   2.034       .  S
O919       Cr923   1.900       .  S
O919        C920   1.229       .  A
C920       O1176   1.243       .  A
C920       C1734   1.380       .  S
Cr921      O1431   1.953       .  S
Cr921      O1452   1.774   1_545  S
Cr922       O924   1.757       .  S
Cr923       O924   1.809       .  S
O924      Cr1185   1.774       .  S
O925       Cr943   1.953       .  S
O925        C933   1.257       .  A
O926       Cr943   1.963       .  S
O926        C927   1.243       .  A
C927        O928   1.296       .  A
O928       Cr944   2.073       .  S
O929       Cr944   2.088       .  S
O929        C930   1.291       .  A
C930        O931   1.249       .  A
C930       C1433   1.511       .  S
O931       Cr945   1.914       .  S
O932       Cr945   2.071       .  S
O932        C933   1.283       .  A
O934       Cr943   1.944       .  S
O934       C1470   1.243       .  A
O935       Cr943   1.966       .  S
O935        C936   1.263       .  A
C936        O937   1.274       .  A
C936        C958   1.459       .  S
O937       Cr944   2.020       .  S
O938       Cr944   1.952       .  S
O938       C1467   1.257       .  A
C939       O1202   1.257       .  A
C939        O940   1.267       .  A
C939        C977   1.466       .  S
O940      Cr1209   2.035       .  S
O941      Cr1209   1.900       .  S
O941        C942   1.229       .  A
C942       O1198   1.243       .  A
Cr943       O946   1.774       .  S
Cr944       O946   1.757       .  S
Cr945      O1468   2.035       .  S
Cr945      O1469   1.900       .  S
Cr945       O946   1.809       .  S
O947       Cr965   1.953       .  S
O948       Cr965   1.963       .  S
C949       O1740   1.243       .  A
C949        O950   1.296       .  A
C949       C1766   1.511       .  S
O950       Cr966   2.072       .  S
O951       Cr966   2.088       .  S
O951        C952   1.291       .  A
C952        O953   1.249       .  A
C952       C1499   1.511       .  S
O953       Cr967   1.914       .  S
O954       Cr967   2.071       .  S
O954        C955   1.283       .  A
C955       O1739   1.257       .  A
C955       C1005   1.466       .  S
O956       Cr965   1.944       .  S
O956        C964   1.243       .  A
O957       Cr965   1.966       .  S
O957        C958   1.263       .  A
O959       Cr966   2.020       .  S
O959       C1750   1.274       .  A
O960       Cr966   1.952       .  S
O960       C1489   1.257       .  A
C961       O1224   1.257       .  A
C961        O962   1.267       .  A
O962      Cr1231   2.035       .  S
O963      Cr1231   1.900       .  S
O963       C2020   1.229       .  A
C964       C1514   1.380       .  S
Cr966       O968   1.757       .  S
Cr967      O1490   2.035       .  S
Cr967      O1491   1.900       .  S
Cr967       O968   1.809       .  S
O968      Cr1757   1.774       .  S
O969      Cr1251   1.953       .  S
O969        C977   1.257       .  A
O970       Cr987   1.963       .  S
O970       C1499   1.243       .  A
C971       O1234   1.243       .  A
C971        O972   1.296       .  A
C971       C1216   1.511       .  S
O972       Cr988   2.073       .  S
O973       Cr988   2.088       .  S
O973        C974   1.291       .  A
C974        O975   1.249       .  A
O975       Cr989   1.914       .  S
O976       Cr989   2.071       .  S
O976        C977   1.283       .  A
O978       Cr987   1.944       .  S
O978       C1514   1.243       .  A
O979       Cr987   1.966       .  S
O979        C980   1.263       .  A
C980       O1509   1.274       .  A
C980       C1002   1.459       .  S
O981       Cr988   2.020       .  S
O981       C1244   1.274       .  A
O982       Cr988   1.952       .  S
C983       O1774   1.257       .  A
C983        O984   1.267       .  A
C983       C1021   1.466       .  S
O984      Cr1781   2.035       .  S
O985      Cr1781   1.900       .  S
O985       C1778   1.229       .  A
C986       O1242   1.243       .  A
C986       C1228   1.380       .  S
Cr987      O1497   1.953       .  S
Cr987      O1518   1.774   1_545  S
Cr988       O990   1.757       .  S
Cr989       O990   1.809       .  S
O990      Cr1251   1.774       .  S
O991      Cr1009   1.953       .  S
O991        C999   1.257       .  A
O992      Cr1009   1.963   1_554  S
O992        C993   1.243       .  A
C993        O994   1.296       .  A
C993       C1018   1.511       .  S
O994      Cr1010   2.073       .  S
O995      Cr1010   2.088       .  S
O995        C996   1.291   1_554  A
C996        O997   1.249       .  A
O997      Cr1011   1.914       .  S
O998      Cr1011   2.071       .  S
O998        C999   1.283       .  A
C999       C1049   1.466       .  S
O1000     Cr1009   1.944       .  S
O1000      C1536   1.243       .  A
O1001     Cr1009   1.966   1_554  S
O1001      C1002   1.263       .  A
C1002      O1003   1.274       .  A
O1003     Cr1010   2.020       .  S
O1004     Cr1010   1.952       .  S
C1005      O1796   1.257       .  A
C1005      O1006   1.267       .  A
O1006     Cr1803   2.035   1_554  S
O1007     Cr1803   1.900       .  S
O1007      C2328   1.229       .  A
C1008      O1264   1.243       .  A
C1008      C1030   1.380   1_556  S
Cr1009     O1012   1.774   1_556  S
Cr1010     O1012   1.757       .  S
Cr1011     O1012   1.809   1_556  S
O1013     Cr1031   1.953       .  S
O1014     Cr1031   1.963   1_556  S
C1015      O1806   1.243       .  A
C1015      O1016   1.296       .  A
C1015      C1788   1.511       .  S
O1016     Cr1032   2.072       .  S
O1017     Cr1032   2.088       .  S
O1017      C1018   1.291   1_556  A
C1018      O1019   1.249       .  A
O1019     Cr1033   1.914       .  S
O1020     Cr1033   2.071       .  S
O1020      C1021   1.283       .  A
C1021      O1805   1.257       .  A
O1022     Cr1031   1.944       .  S
O1022      C1030   1.243       .  A
O1023     Cr1031   1.966   1_556  S
O1023      C1024   1.263       .  A
C1024      C1046   1.460       .  S
O1025     Cr1032   2.020       .  S
O1025      C1816   1.274       .  A
O1026     Cr1032   1.952       .  S
O1026      C1027   1.257       .  A
C1027      O1028   1.267       .  A
O1028     Cr1033   2.035   1_556  S
O1029     Cr1033   1.900   1_556  S
O1029      C1822   1.229   1_556  A
Cr1032     O1034   1.757       .  S
Cr1033     O1034   1.809   1_554  S
O1034     Cr1823   1.774   1_556  S
O1035     Cr1053   1.953       .  S
O1035      C1307   1.257       .  A
O1036     Cr1053   1.963       .  S
O1036      C1037   1.243       .  A
C1037      O1302   1.296       .  A
O1038     Cr1054   2.072   1_565  S
O1038      C1565   1.296       .  A
O1039     Cr1054   2.088       .  S
O1039      C1040   1.291       .  A
C1040      O1041   1.249       .  A
O1041     Cr1055   1.914       .  S
O1042     Cr1055   2.071   1_565  S
O1042      C1043   1.283       .  A
C1043      O1563   1.257       .  A
C1043      C1357   1.466       .  S
O1044     Cr1053   1.944       .  S
O1044      C1052   1.243       .  A
O1045     Cr1053   1.966       .  S
O1045      C1046   1.263       .  A
C1046      O1047   1.274       .  A
O1047     Cr1318   2.020       .  S
O1048     Cr1054   1.952       .  S
O1048      C1049   1.257       .  A
C1049      O1050   1.267       .  A
O1050     Cr1055   2.034       .  S
O1051     Cr1055   1.900   1_565  S
O1051      C1580   1.229       .  A
C1052      O1315   1.229       .  A
Cr1053     O1320   1.774       .  S
Cr1054     O1575   2.020   1_545  S
Cr1054     O1056   1.757   1_545  S
Cr1055     O1056   1.809   1_545  S
O1056     Cr1581   1.774       .  S
O1057     Cr1075   1.953       .  S
O1057      C1065   1.257       .  A
O1058     Cr1075   1.963       .  S
O1058      C1059   1.243       .  A
C1059      O1060   1.296       .  A
C1059      C1304   1.511       .  S
O1060     Cr1076   2.073       .  S
O1061     Cr1076   2.088       .  S
O1061      C1062   1.291       .  A
C1062      O1063   1.249       .  A
C1062      C1301   1.511       .  S
O1063     Cr1077   1.914       .  S
O1064     Cr1077   2.071       .  S
O1064      C1065   1.283       .  A
C1065      C1291   1.466       .  S
O1066     Cr1075   1.944       .  S
O1066      C1074   1.243       .  A
O1067     Cr1075   1.966       .  S
O1067      C1068   1.263       .  A
C1068      O1069   1.274       .  A
C1068      C1090   1.459       .  S
O1069     Cr1076   2.020       .  S
O1070     Cr1076   1.952       .  S
O1070      C1071   1.257       .  A
C1071      O1072   1.267       .  A
C1071      C1373   1.466       .  S
O1072     Cr1077   2.035       .  S
O1073     Cr1077   1.900       .  S
O1073      C1074   1.229       .  A
C1074      C2108   1.380       .  S
Cr1075     O1078   1.774       .  S
Cr1076     O1078   1.757       .  S
Cr1077     O1078   1.809       .  S
O1079     Cr1097   1.953       .  S
O1079      C1879   1.257       .  A
O1080     Cr1097   1.963       .  S
O1080      C1873   1.243       .  A
C1081      O1082   1.296       .  A
O1082     Cr1098   2.072       .  S
O1083     Cr1098   2.088       .  S
O1083      C1084   1.291       .  A
C1084      O1085   1.249       .  A
C1084      C1103   1.511       .  S
O1085     Cr1099   1.914       .  S
O1086     Cr1099   2.071       .  S
O1086      C1087   1.283       .  A
O1088     Cr1097   1.944       .  S
O1088      C1096   1.243       .  A
O1089     Cr1097   1.966       .  S
O1089      C1090   1.263       .  A
C1090      O1883   1.274       .  A
O1091     Cr1098   2.020       .  S
O1092     Cr1098   1.952       .  S
O1092      C1093   1.257       .  A
C1093      O1094   1.267       .  A
C1093      C1571   1.466       .  S
O1094     Cr1099   2.035       .  S
O1095     Cr1099   1.900       .  S
C1096      O1887   1.229       .  A
C1096      C1118   1.380       .  S
Cr1097     O1892   1.774       .  S
Cr1098     O1100   1.757       .  S
Cr1099     O1100   1.809       .  S
O1101     Cr1119   1.953       .  S
O1101      C1373   1.257       .  A
O1102     Cr1119   1.963       .  S
O1102      C1103   1.243       .  A
C1103      O1368   1.296       .  A
O1104     Cr1120   2.073       .  S
O1105     Cr1120   2.088       .  S
O1105      C1106   1.291       .  A
C1106      O1107   1.249       .  A
C1106      C1873   1.511       .  S
O1107     Cr1121   1.914       .  S
O1108     Cr1121   2.071       .  S
O1108      C1109   1.283       .  A
O1110     Cr1119   1.944       .  S
O1110      C1118   1.243       .  A
O1111     Cr1119   1.966       .  S
O1111      C1112   1.263       .  A
C1112      O1113   1.274       .  A
C1112      C1134   1.459       .  S
O1113     Cr1384   2.020       .  S
O1114     Cr1120   1.952       .  S
O1114      C1115   1.257       .  A
C1115      O1908   1.267       .  A
C1115      C1945   1.466       .  S
O1117     Cr1121   1.900       .  S
C1118      O1381   1.229       .  A
Cr1119     O1386   1.774       .  S
Cr1120     O1122   1.757       .  S
Cr1121     O1908   2.035       .  S
Cr1121     O1122   1.809       .  S
O1123     Cr1141   1.953       .  S
O1123      C1131   1.257       .  A
O1124     Cr1141   1.963       .  S
O1124      C1125   1.243       .  A
C1125      O1126   1.296       .  A
C1125      C1150   1.511       .  S
O1126     Cr1142   2.073       .  S
O1127     Cr1142   2.088       .  S
O1127      C1128   1.291       .  A
C1128      O1129   1.249       .  A
C1128      C1939   1.511       .  S
O1129     Cr1143   1.914       .  S
O1130     Cr1143   2.071       .  S
O1130      C1131   1.283       .  A
C1131      C1181   1.466       .  S
O1132     Cr1141   1.944       .  S
O1132      C1140   1.243       .  A
O1133     Cr1141   1.966       .  S
O1133      C1134   1.263       .  A
C1134      O1135   1.274       .  A
O1135     Cr1142   2.020       .  S
O1136     Cr1142   1.952       .  S
O1136      C1137   1.257       .  A
C1137      O1930   1.267       .  A
C1137      C1879   1.466       .  S
O1139     Cr1143   1.900       .  S
O1139      C1140   1.229       .  A
C1140      C1162   1.380       .  S
Cr1141     O1144   1.774       .  S
Cr1142     O1144   1.757       .  S
Cr1143     O1930   2.035       .  S
Cr1143     O1144   1.809       .  S
O1145     Cr1163   1.953       .  S
O1145      C1945   1.257       .  A
O1146     Cr1163   1.963       .  S
O1146      C1939   1.243       .  A
C1147      O1148   1.296       .  A
O1148     Cr1164   2.072       .  S
O1149     Cr1164   2.088       .  S
O1149      C1150   1.291       .  A
C1150      O1151   1.249       .  A
O1151     Cr1165   1.914       .  S
O1152     Cr1165   2.071       .  S
O1152      C1153   1.283       .  A
O1154     Cr1163   1.944       .  S
O1155     Cr1163   1.966       .  S
O1155      C1156   1.263       .  A
C1156      O1949   1.274       .  A
C1156      C1178   1.460       .  S
O1157     Cr1164   2.020       .  S
O1158     Cr1164   1.952       .  S
O1158      C1159   1.257       .  A
C1159      O1160   1.267       .  A
C1159      C1197   1.466       .  S
O1160     Cr1165   2.035       .  S
O1161     Cr1165   1.900       .  S
C1162      O1418   1.243       .  A
C1162      O2217   1.229       .  A
Cr1163     O1958   1.774       .  S
Cr1164     O1166   1.757       .  S
Cr1165     O1166   1.809       .  S
O1167     Cr1449   1.953       .  S
O1167      C1175   1.257       .  A
O1168     Cr1185   1.963       .  S
C1169      O1432   1.243       .  A
C1169      O1170   1.296       .  A
C1169      C1458   1.511       .  S
O1170     Cr1186   2.072       .  S
O1171     Cr1186   2.088       .  S
O1171      C1172   1.291       .  A
C1172      O1173   1.249       .  A
C1172      C1191   1.511       .  S
O1173     Cr1187   1.914       .  S
O1174     Cr1187   2.071       .  S
O1174      C1175   1.283       .  A
C1175      C1225   1.466       .  S
O1176     Cr1185   1.944       .  S
O1177     Cr1185   1.966       .  S
O1177      C1178   1.263       .  A
O1179     Cr1186   2.020       .  S
O1179      C1442   1.274       .  A
O1180     Cr1186   1.952       .  S
O1180      C1181   1.257       .  A
C1181      O1182   1.267       .  A
O1182     Cr1187   2.034       .  S
O1183     Cr1187   1.900       .  S
O1183      C1184   1.229       .  A
C1184      O1440   1.243       .  A
C1184      C1998   1.380       .  S
Cr1186     O1188   1.757       .  S
Cr1187     O1188   1.809       .  S
O1188     Cr1449   1.774       .  S
O1189     Cr1207   1.953       .  S
O1189      C1197   1.257       .  A
O1190     Cr1207   1.963       .  S
O1190      C1191   1.243       .  A
C1191      O1192   1.296       .  A
O1192     Cr1208   2.073       .  S
O1193     Cr1208   2.088       .  S
O1193      C1194   1.291       .  A
C1194      O1195   1.249       .  A
O1195     Cr1209   1.914       .  S
O1196     Cr1209   2.071       .  S
O1196      C1197   1.283       .  A
O1198     Cr1207   1.944       .  S
O1199     Cr1207   1.966       .  S
O1199      C1200   1.263       .  A
C1200      O1201   1.274       .  A
C1200      C1222   1.459       .  S
O1201     Cr1208   2.020       .  S
O1202     Cr1208   1.952       .  S
C1203      O1466   1.257       .  A
C1203      O1204   1.267       .  A
C1203      C1241   1.466       .  S
O1204     Cr1473   2.035       .  S
O1205     Cr1473   1.900       .  S
O1205      C1206   1.229       .  A
C1206      O1462   1.243       .  A
Cr1207     O1210   1.774       .  S
Cr1208     O1210   1.757       .  S
Cr1209     O1210   1.809       .  S
O1211     Cr1229   1.953       .  S
O1212     Cr1229   1.963       .  S
C1213      O2004   1.243       .  A
C1213      O1214   1.296       .  A
C1213      C2030   1.511       .  S
O1214     Cr1230   2.072       .  S
O1215     Cr1230   2.088       .  S
O1215      C1216   1.291       .  A
C1216      O1217   1.249       .  A
O1217     Cr1231   1.914       .  S
O1218     Cr1231   2.071       .  S
O1218      C1219   1.283       .  A
C1219      O2003   1.257       .  A
C1219      C1269   1.466       .  S
O1220     Cr1229   1.944       .  S
O1220      C1228   1.243       .  A
O1221     Cr1229   1.966       .  S
O1221      C1222   1.263       .  A
O1223     Cr1230   2.020       .  S
O1223      C2014   1.274       .  A
O1224     Cr1230   1.952       .  S
C1225      O1488   1.257       .  A
C1225      O1226   1.267       .  A
O1226     Cr1495   2.035       .  S
O1227     Cr1495   1.900       .  S
O1227      C2284   1.229       .  A
Cr1230     O1232   1.757       .  S
Cr1231     O1232   1.809       .  S
O1232     Cr2021   1.774       .  S
O1233     Cr1515   1.953       .  S
O1233      C1241   1.257       .  A
O1234     Cr1251   1.963       .  S
C1235      O1498   1.243       .  A
C1235      O1236   1.296       .  A
C1235      C1480   1.511       .  S
O1236     Cr1252   2.073       .  S
O1237     Cr1252   2.088       .  S
O1237      C1238   1.291       .  A
C1238      O1239   1.249       .  A
O1239     Cr1253   1.914       .  S
O1240     Cr1253   2.071       .  S
O1240      C1241   1.283       .  A
O1242     Cr1251   1.944       .  S
O1243     Cr1251   1.966       .  S
O1243      C1244   1.263       .  A
C1244      C1266   1.459       .  S
O1245     Cr1252   2.020       .  S
O1245      C1508   1.274       .  A
O1246     Cr1252   1.952       .  S
C1247      O2038   1.257       .  A
C1247      O1248   1.267       .  A
C1247      C1285   1.466       .  S
O1248     Cr2045   2.035       .  S
O1249     Cr2045   1.900       .  S
O1249      C2042   1.229       .  A
C1250      O1506   1.243       .  A
C1250      C1492   1.380       .  S
Cr1252     O1254   1.757       .  S
Cr1253     O1254   1.809       .  S
O1254     Cr1515   1.774       .  S
O1255     Cr1273   1.953       .  S
O1255      C1263   1.257       .  A
O1256     Cr1273   1.963   1_554  S
O1256      C1257   1.243       .  A
C1257      O1258   1.296       .  A
C1257      C1282   1.511       .  S
O1258     Cr1274   2.073       .  S
O1259     Cr1274   2.088       .  S
O1259      C1260   1.291   1_554  A
C1260      O1261   1.249       .  A
O1261     Cr1275   1.914       .  S
O1262     Cr1275   2.071       .  S
O1262      C1263   1.283       .  A
C1263      C1313   1.466       .  S
O1264     Cr1273   1.944       .  S
O1265     Cr1273   1.966   1_554  S
O1265      C1266   1.263       .  A
C1266      O1267   1.274       .  A
O1267     Cr1274   2.020       .  S
O1268     Cr1274   1.952       .  S
C1269      O2060   1.257       .  A
C1269      O1270   1.267       .  A
O1270     Cr2067   2.035   1_554  S
O1271     Cr2067   1.900       .  S
O1271      C1800   1.229       .  A
C1272      O1528   1.243       .  A
C1272      C1294   1.380   1_556  S
Cr1273     O1276   1.774   1_556  S
Cr1274     O1276   1.757       .  S
Cr1275     O1276   1.809   1_556  S
O1277     Cr1295   1.953       .  S
O1278     Cr1295   1.963   1_556  S
C1279      O2070   1.243       .  A
C1279      O1280   1.296       .  A
C1279      C2052   1.511       .  S
O1280     Cr1296   2.072       .  S
O1281     Cr1296   2.088       .  S
O1281      C1282   1.291   1_556  A
C1282      O1283   1.249       .  A
O1283     Cr1297   1.914       .  S
O1284     Cr1297   2.071       .  S
O1284      C1285   1.283       .  A
C1285      O2069   1.257       .  A
O1286     Cr1295   1.944       .  S
O1286      C1294   1.243       .  A
O1287     Cr1295   1.966   1_556  S
O1287      C1288   1.263       .  A
C1288      C1310   1.460       .  S
O1289     Cr1296   2.020       .  S
O1289      C2080   1.274       .  A
O1290     Cr1296   1.952       .  S
O1290      C1291   1.257       .  A
C1291      O1292   1.267       .  A
O1292     Cr1297   2.035   1_556  S
O1293     Cr1297   1.900   1_556  S
O1293      C2086   1.229   1_556  A
Cr1296     O1298   1.757       .  S
Cr1297     O1298   1.809   1_554  S
O1298     Cr2087   1.774   1_556  S
O1299     Cr1317   1.953       .  S
O1299      C1571   1.257       .  A
O1300     Cr1317   1.963       .  S
O1300      C1301   1.243       .  A
C1301      O1566   1.296       .  A
O1302     Cr1318   2.072       .  S
O1303     Cr1318   2.088       .  S
O1303      C1304   1.291       .  A
C1304      O1305   1.249       .  A
O1305     Cr1319   1.914       .  S
O1306     Cr1319   2.071       .  S
O1306      C1307   1.283       .  A
O1308     Cr1317   1.944       .  S
O1308      C1316   1.243       .  A
O1309     Cr1317   1.966       .  S
O1309      C1310   1.263       .  A
C1310      O1311   1.274       .  A
O1311     Cr1582   2.020       .  S
O1312     Cr1318   1.952       .  S
O1312      C1313   1.257       .  A
C1313      O1314   1.267       .  A
O1314     Cr1319   2.034       .  S
O1315     Cr1319   1.900       .  S
C1316      O1579   1.229       .  A
Cr1317     O1584   1.774       .  S
Cr1318     O1320   1.757       .  S
Cr1319     O1320   1.809       .  S
O1321     Cr1339   1.953       .  S
O1321      C1329   1.257       .  A
O1322     Cr1339   1.963       .  S
O1322      C1323   1.243       .  A
C1323      O1324   1.296       .  A
C1323      C1568   1.511       .  S
O1324     Cr1340   2.073       .  S
O1325     Cr1340   2.088       .  S
O1325      C1326   1.291       .  A
C1326      O1327   1.249       .  A
C1326      C1565   1.511       .  S
O1327     Cr1341   1.914       .  S
O1328     Cr1341   2.071       .  S
O1328      C1329   1.283       .  A
C1329      C1555   1.466       .  S
O1330     Cr1339   1.944       .  S
O1330      C1338   1.243       .  A
O1331     Cr1339   1.966       .  S
O1331      C1332   1.263       .  A
C1332      O1333   1.274       .  A
C1332      C1354   1.459       .  S
O1333     Cr1340   2.020       .  S
O1334     Cr1340   1.952       .  S
O1334      C1335   1.257       .  A
C1335      O1336   1.267       .  A
O1336     Cr1341   2.035       .  S
O1337     Cr1341   1.900       .  S
O1337      C1338   1.229       .  A
C1338      C2372   1.380       .  S
Cr1339     O1342   1.774       .  S
Cr1340     O1342   1.757       .  S
Cr1341     O1342   1.809       .  S
O1343     Cr1361   1.953       .  S
O1343      C2143   1.257       .  A
O1344     Cr1361   1.963       .  S
O1344      C2137   1.243       .  A
C1345      O1346   1.296       .  A
O1346     Cr1362   2.072       .  S
O1347     Cr1362   2.088       .  S
O1347      C1348   1.291       .  A
C1348      O1349   1.249       .  A
C1348      C1367   1.511       .  S
O1349     Cr1363   1.914       .  S
O1350     Cr1363   2.071       .  S
O1350      C1351   1.283       .  A
O1352     Cr1361   1.944       .  S
O1352      C1360   1.243       .  A
O1353     Cr1361   1.966       .  S
O1353      C1354   1.263       .  A
C1354      O2147   1.274       .  A
O1355     Cr1362   2.020       .  S
O1356     Cr1362   1.952       .  S
O1356      C1357   1.257       .  A
C1357      O1358   1.267       .  A
O1358     Cr1363   2.035       .  S
O1359     Cr1363   1.900       .  S
C1360      O2151   1.229       .  A
C1360      C1382   1.380       .  S
Cr1361     O2156   1.774       .  S
Cr1362     O1364   1.757       .  S
Cr1363     O1364   1.809       .  S
O1365     Cr1383   1.953       .  S
O1366     Cr1383   1.963       .  S
O1366      C1367   1.243       .  A
O1368     Cr1384   2.073       .  S
O1369     Cr1384   2.088       .  S
O1369      C1370   1.291       .  A
C1370      O1371   1.249       .  A
C1370      C2137   1.511       .  S
O1371     Cr1385   1.914       .  S
O1372     Cr1385   2.071       .  S
O1372      C1373   1.283       .  A
O1374     Cr1383   1.944       .  S
O1374      C1382   1.243       .  A
O1375     Cr1383   1.966       .  S
O1375      C1376   1.263       .  A
C1376      O1377   1.274       .  A
C1376      C1398   1.459       .  S
O1378     Cr1384   1.952       .  S
O1378      C1379   1.257       .  A
C1379      O2172   1.267       .  A
C1379      C2209   1.466       .  S
O1381     Cr1385   1.900       .  S
Cr1384     O1386   1.757       .  S
Cr1385     O2172   2.035       .  S
Cr1385     O1386   1.809       .  S
O1387     Cr1405   1.953       .  S
O1387      C1395   1.257       .  A
O1388     Cr1405   1.963       .  S
O1388      C1389   1.243       .  A
C1389      O1390   1.296       .  A
C1389      C1414   1.511       .  S
O1390     Cr1406   2.073       .  S
O1391     Cr1406   2.088       .  S
O1391      C1392   1.291       .  A
C1392      O1393   1.249       .  A
C1392      C2203   1.511       .  S
O1393     Cr1407   1.914       .  S
O1394     Cr1407   2.071       .  S
O1394      C1395   1.283       .  A
C1395      C1445   1.466       .  S
O1396     Cr1405   1.944       .  S
O1396      C1404   1.243       .  A
O1397     Cr1405   1.966       .  S
O1397      C1398   1.263       .  A
C1398      O1399   1.274       .  A
O1399     Cr1406   2.020       .  S
O1400     Cr1406   1.952       .  S
O1400      C1401   1.257       .  A
C1401      O2194   1.267       .  A
C1401      C2143   1.466       .  S
O1403     Cr1407   1.900       .  S
O1403      C1404   1.229       .  A
C1404      C1426   1.380   1_565  S
Cr1405     O1408   1.774       .  S
Cr1406     O1408   1.757       .  S
Cr1407     O2194   2.035       .  S
Cr1407     O1408   1.809       .  S
O1409     Cr1427   1.953       .  S
O1409      C2209   1.257       .  A
O1410     Cr1427   1.963       .  S
O1410      C2203   1.243       .  A
C1411      O1412   1.296       .  A
O1412     Cr1428   2.072       .  S
O1413     Cr1428   2.088       .  S
O1413      C1414   1.291       .  A
C1414      O1415   1.249       .  A
O1415     Cr1429   1.914       .  S
O1416     Cr1429   2.071       .  S
O1416      C1417   1.283       .  A
O1418     Cr1427   1.944       .  S
O1419     Cr1427   1.966       .  S
O1419      C1420   1.263       .  A
C1420      O2213   1.274       .  A
C1420      C1442   1.460       .  S
O1421     Cr1428   2.020       .  S
O1422     Cr1428   1.952       .  S
O1422      C1423   1.257       .  A
C1423      O1424   1.267       .  A
C1423      C1461   1.466       .  S
O1424     Cr1429   2.035       .  S
O1425     Cr1429   1.900       .  S
C1426      O1689   1.229       .  A
Cr1427     O2222   1.774       .  S
Cr1428     O1430   1.757       .  S
Cr1429     O1430   1.809       .  S
O1431      C1439   1.257   1_545  A
O1432     Cr1449   1.963       .  S
C1433      O1434   1.296   1_545  A
O1434     Cr1450   2.072       .  S
O1435     Cr1450   2.088       .  S
O1435      C1436   1.291       .  A
C1436      O1437   1.249       .  A
C1436      C1455   1.511       .  S
O1437     Cr1451   1.914       .  S
O1438     Cr1451   2.071       .  S
O1438      C1439   1.283       .  A
C1439      C1489   1.466   1_565  S
O1440     Cr1449   1.944       .  S
O1441     Cr1449   1.966       .  S
O1441      C1442   1.263       .  A
O1443     Cr1450   2.020   1_545  S
O1444     Cr1450   1.952       .  S
O1444      C1445   1.257       .  A
C1445      O1446   1.267       .  A
O1446     Cr1451   2.034       .  S
O1447     Cr1451   1.900       .  S
O1447      C1448   1.229   1_565  A
C1448      C2262   1.380       .  S
Cr1450     O1452   1.757       .  S
Cr1451     O1452   1.809       .  S
O1453     Cr1471   1.953       .  S
O1453      C1461   1.257       .  A
O1454     Cr1471   1.963       .  S
O1454      C1455   1.243       .  A
C1455      O1456   1.296       .  A
O1456     Cr1472   2.073       .  S
O1457     Cr1472   2.088       .  S
O1457      C1458   1.291       .  A
C1458      O1459   1.249       .  A
O1459     Cr1473   1.914       .  S
O1460     Cr1473   2.071       .  S
O1460      C1461   1.283       .  A
O1462     Cr1471   1.944       .  S
O1463     Cr1471   1.966       .  S
O1463      C1464   1.263       .  A
C1464      O1465   1.274       .  A
C1464      C1486   1.459       .  S
O1465     Cr1472   2.020       .  S
O1466     Cr1472   1.952       .  S
C1467      O1468   1.267       .  A
C1467      C1505   1.466   1_545  S
O1469      C1470   1.229       .  A
Cr1471     O1474   1.774       .  S
Cr1472     O1474   1.757       .  S
Cr1473     O1474   1.809       .  S
O1475     Cr1493   1.953       .  S
O1476     Cr1493   1.963       .  S
C1477      O2268   1.243       .  A
C1477      O1478   1.296       .  A
C1477      C2294   1.511       .  S
O1478     Cr1494   2.072       .  S
O1479     Cr1494   2.088       .  S
O1479      C1480   1.291       .  A
C1480      O1481   1.249       .  A
O1481     Cr1495   1.914       .  S
O1482     Cr1495   2.071       .  S
O1482      C1483   1.283       .  A
C1483      O2267   1.257       .  A
C1483      C1533   1.466       .  S
O1484     Cr1493   1.944       .  S
O1484      C1492   1.243       .  A
O1485     Cr1493   1.966       .  S
O1485      C1486   1.263       .  A
O1487     Cr1494   2.020       .  S
O1487      C2278   1.274       .  A
O1488     Cr1494   1.952       .  S
C1489      O1490   1.267       .  A
O1491      C1756   1.229       .  A
Cr1494     O1496   1.757       .  S
Cr1495     O1496   1.809       .  S
O1496     Cr2285   1.774       .  S
O1497      C1505   1.257   1_545  A
O1498     Cr1515   1.963       .  S
C1499      O1500   1.296   1_545  A
O1500     Cr1516   2.073       .  S
O1501     Cr1516   2.088       .  S
O1501      C1502   1.291       .  A
C1502      O1503   1.249       .  A
O1503     Cr1517   1.914       .  S
O1504     Cr1517   2.071       .  S
O1504      C1505   1.283       .  A
O1506     Cr1515   1.944       .  S
O1507     Cr1515   1.966       .  S
O1507      C1508   1.263       .  A
C1508      C1530   1.459       .  S
O1509     Cr1516   2.020   1_545  S
O1510     Cr1516   1.952       .  S
C1511      O2302   1.257       .  A
C1511      O1512   1.267       .  A
C1511      C1549   1.466       .  S
O1512     Cr2309   2.035       .  S
O1513     Cr2309   1.900       .  S
O1513      C2306   1.229   1_565  A
Cr1516     O1518   1.757       .  S
Cr1517     O1518   1.809       .  S
O1519     Cr1537   1.953       .  S
O1519      C1527   1.257       .  A
O1520     Cr1537   1.963   1_554  S
O1520      C1521   1.243       .  A
C1521      O1522   1.296       .  A
C1521      C1546   1.511       .  S
O1522     Cr1538   2.073       .  S
O1523     Cr1538   2.088       .  S
O1523      C1524   1.291   1_554  A
C1524      O1525   1.249       .  A
O1525     Cr1539   1.914       .  S
O1526     Cr1539   2.071       .  S
O1526      C1527   1.283       .  A
C1527      C1577   1.466       .  S
O1528     Cr1537   1.944       .  S
O1529     Cr1537   1.966   1_554  S
O1529      C1530   1.263       .  A
C1530      O1531   1.274       .  A
O1531     Cr1538   2.020       .  S
O1532     Cr1538   1.952       .  S
C1533      O2324   1.257       .  A
C1533      O1534   1.267       .  A
O1534     Cr2331   2.035   1_554  S
O1535     Cr2331   1.900       .  S
O1535      C2064   1.229       .  A
C1536      C1558   1.380   1_546  S
Cr1537     O1540   1.774   1_556  S
Cr1538     O1540   1.757       .  S
Cr1539     O1540   1.809   1_556  S
O1541     Cr1559   1.953       .  S
O1542     Cr1559   1.963   1_556  S
C1543      O2334   1.243       .  A
C1543      O1544   1.296       .  A
C1543      C2316   1.511       .  S
O1544     Cr1560   2.072       .  S
O1545     Cr1560   2.088       .  S
O1545      C1546   1.291   1_556  A
C1546      O1547   1.249       .  A
O1547     Cr1561   1.914       .  S
O1548     Cr1561   2.071       .  S
O1548      C1549   1.283       .  A
C1549      O2333   1.257       .  A
O1550     Cr1559   1.944       .  S
O1550      C1558   1.243       .  A
O1551     Cr1559   1.966   1_556  S
O1551      C1552   1.263       .  A
C1552      C1574   1.460       .  S
O1553     Cr1560   2.020       .  S
O1553      C2344   1.274       .  A
O1554     Cr1560   1.952       .  S
O1554      C1555   1.257       .  A
C1555      O1556   1.267       .  A
O1556     Cr1561   2.035   1_556  S
O1557     Cr1561   1.900   1_556  S
O1557      C2350   1.229   1_556  A
Cr1560     O1562   1.757       .  S
Cr1561     O1562   1.809   1_554  S
O1562     Cr2351   1.774   1_556  S
O1563     Cr1581   1.953       .  S
O1564     Cr1581   1.963       .  S
O1564      C1565   1.243       .  A
O1566     Cr1582   2.072       .  S
O1567     Cr1582   2.088       .  S
O1567      C1568   1.291       .  A
C1568      O1569   1.249       .  A
O1569     Cr1583   1.914       .  S
O1570     Cr1583   2.071       .  S
O1570      C1571   1.283       .  A
O1572     Cr1581   1.944       .  S
O1572      C1580   1.243       .  A
O1573     Cr1581   1.966       .  S
O1573      C1574   1.263       .  A
C1574      O1575   1.274       .  A
O1576     Cr1582   1.952       .  S
O1576      C1577   1.257       .  A
C1577      O1578   1.267       .  A
O1578     Cr1583   2.034       .  S
O1579     Cr1583   1.900       .  S
Cr1582     O1584   1.757       .  S
Cr1583     O1584   1.809       .  S
O1585     Cr1603   1.953       .  S
O1585      C1593   1.257       .  A
O1586     Cr1603   1.963       .  S
O1586      C1587   1.243       .  A
C1587      O1588   1.296       .  A
C1587      C1832   1.511       .  S
O1588     Cr1604   2.073       .  S
O1589     Cr1604   2.088       .  S
O1589      C1590   1.291       .  A
C1590      O1591   1.249       .  A
C1590      C1829   1.511       .  S
O1591     Cr1605   1.914       .  S
O1592     Cr1605   2.071       .  S
O1592      C1593   1.283       .  A
C1593      C1819   1.466       .  S
O1594     Cr1603   1.944       .  S
O1594      C1602   1.243       .  A
O1595     Cr1603   1.966       .  S
O1595      C1596   1.263       .  A
C1596      O1597   1.274       .  A
C1596      C1618   1.459       .  S
O1597     Cr1604   2.020       .  S
O1598     Cr1604   1.952       .  S
O1598      C1599   1.257       .  A
C1599      O1600   1.267       .  A
C1599      C1901   1.466       .  S
O1600     Cr1605   2.035       .  S
O1601     Cr1605   1.900       .  S
O1601      C1602   1.229       .  A
Cr1603     O1606   1.774       .  S
Cr1604     O1606   1.757       .  S
Cr1605     O1606   1.809       .  S
O1607     Cr1625   1.953       .  S
O1608     Cr1625   1.963       .  S
C1609      O1610   1.296       .  A
O1610     Cr1626   2.072       .  S
O1611     Cr1626   2.088       .  S
O1611      C1612   1.291       .  A
C1612      O1613   1.249       .  A
C1612      C1631   1.511       .  S
O1613     Cr1627   1.914       .  S
O1614     Cr1627   2.071       .  S
O1614      C1615   1.283       .  A
O1616     Cr1625   1.944       .  S
O1616      C1624   1.243       .  A
O1617     Cr1625   1.966       .  S
O1617      C1618   1.263       .  A
O1619     Cr1626   2.020       .  S
O1620     Cr1626   1.952       .  S
O1620      C1621   1.257       .  A
C1621      O1622   1.267       .  A
C1621      C2099   1.466       .  S
O1622     Cr1627   2.035       .  S
O1623     Cr1627   1.900       .  S
C1624      C1646   1.380       .  S
Cr1626     O1628   1.757       .  S
Cr1627     O1628   1.809       .  S
O1629     Cr1647   1.953       .  S
O1629      C1901   1.257       .  A
O1630     Cr1647   1.963       .  S
O1630      C1631   1.243       .  A
C1631      O1896   1.296       .  A
O1632     Cr1648   2.073   1_565  S
O1632      C2159   1.296       .  A
O1633     Cr1648   2.088       .  S
O1633      C1634   1.291       .  A
C1634      O1635   1.249       .  A
O1635     Cr1649   1.914       .  S
O1636     Cr1649   2.071   1_565  S
O1636      C1637   1.283       .  A
C1637      O2157   1.257       .  A
C1637      C2127   1.466       .  S
O1638     Cr1647   1.944       .  S
O1638      C1646   1.243       .  A
O1639     Cr1647   1.966       .  S
O1639      C1640   1.263       .  A
C1640      O1641   1.274       .  A
C1640      C1662   1.459       .  S
O1641     Cr1912   2.020       .  S
O1642     Cr1648   1.952       .  S
O1642      C1643   1.257       .  A
O1645     Cr1649   1.900   1_565  S
O1645      C2174   1.229       .  A
C1646      O1909   1.229       .  A
Cr1647     O1914   1.774       .  S
Cr1648     O2169   2.020   1_545  S
Cr1648     O1650   1.757   1_545  S
Cr1649     O1650   1.809   1_545  S
O1650     Cr2175   1.774       .  S
O1651     Cr1669   1.953       .  S
O1651      C1659   1.257       .  A
O1652     Cr1669   1.963       .  S
O1652      C1653   1.243       .  A
C1653      O1654   1.296       .  A
C1653      C1678   1.511       .  S
O1654     Cr1670   2.073       .  S
O1655     Cr1670   2.088       .  S
O1655      C1656   1.291       .  A
C1656      O1657   1.249       .  A
O1657     Cr1671   1.914       .  S
O1658     Cr1671   2.071       .  S
O1658      C1659   1.283       .  A
C1659      C1709   1.466       .  S
O1660     Cr1669   1.944       .  S
O1660      C1668   1.243       .  A
O1661     Cr1669   1.966       .  S
O1661      C1662   1.263       .  A
C1662      O1663   1.274       .  A
O1663     Cr1670   2.020       .  S
O1664     Cr1670   1.952       .  S
O1664      C1665   1.257       .  A
O1667     Cr1671   1.900       .  S
O1667      C1668   1.229       .  A
C1668      C1690   1.380       .  S
Cr1669     O1672   1.774       .  S
Cr1670     O1672   1.757       .  S
Cr1671     O1672   1.809       .  S
O1673     Cr1691   1.953       .  S
O1674     Cr1691   1.963       .  S
C1675      O1676   1.296       .  A
O1676     Cr1692   2.072       .  S
O1677     Cr1692   2.088       .  S
O1677      C1678   1.291       .  A
C1678      O1679   1.249       .  A
O1679     Cr1693   1.914       .  S
O1680     Cr1693   2.071       .  S
O1680      C1681   1.283       .  A
O1682     Cr1691   1.944       .  S
O1682      C2218   1.243       .  A
O1683     Cr1691   1.966       .  S
O1683      C1684   1.263       .  A
C1684      C1706   1.460       .  S
O1685     Cr1692   2.020       .  S
O1686     Cr1692   1.952       .  S
O1686      C1687   1.257       .  A
C1687      O1688   1.267       .  A
C1687      C1725   1.466       .  S
O1688     Cr1693   2.035       .  S
O1689     Cr1693   1.900       .  S
C1690      O1946   1.243       .  A
Cr1692     O1694   1.757       .  S
Cr1693     O1694   1.809       .  S
O1695     Cr1977   1.953       .  S
O1695      C1703   1.257       .  A
O1696     Cr1713   1.963       .  S
O1696      C2225   1.243       .  A
C1697      O1960   1.243       .  A
C1697      O1698   1.296       .  A
C1697      C1986   1.511       .  S
O1698     Cr1714   2.072       .  S
O1699     Cr1714   2.088       .  S
O1699      C1700   1.291       .  A
C1700      O1701   1.249       .  A
C1700      C1719   1.511       .  S
O1701     Cr1715   1.914       .  S
O1702     Cr1715   2.071       .  S
O1702      C1703   1.283       .  A
C1703      C1753   1.466       .  S
O1704     Cr1713   1.944       .  S
O1704      C2240   1.243       .  A
O1705     Cr1713   1.966       .  S
O1705      C1706   1.263       .  A
C1706      O2235   1.274       .  A
O1707     Cr1714   2.020       .  S
O1707      C1970   1.274       .  A
O1708     Cr1714   1.952       .  S
O1708      C1709   1.257       .  A
C1709      O1710   1.267       .  A
O1710     Cr1715   2.034       .  S
O1711     Cr1715   1.900       .  S
O1711      C1712   1.229       .  A
C1712      O1968   1.243       .  A
Cr1713     O2223   1.953       .  S
Cr1713     O2244   1.774   1_545  S
Cr1714     O1716   1.757       .  S
Cr1715     O1716   1.809       .  S
O1716     Cr1977   1.774       .  S
O1717     Cr1735   1.953       .  S
O1717      C1725   1.257       .  A
O1718     Cr1735   1.963       .  S
O1718      C1719   1.243       .  A
C1719      O1720   1.296       .  A
O1720     Cr1736   2.073       .  S
O1721     Cr1736   2.088       .  S
O1721      C1722   1.291       .  A
C1722      O1723   1.249       .  A
C1722      C2225   1.511       .  S
O1723     Cr1737   1.914       .  S
O1724     Cr1737   2.071       .  S
O1724      C1725   1.283       .  A
O1726     Cr1735   1.944       .  S
O1726      C2262   1.243       .  A
O1727     Cr1735   1.966       .  S
O1727      C1728   1.263       .  A
C1728      O1729   1.274       .  A
C1728      C1750   1.459       .  S
O1729     Cr1736   2.020       .  S
O1730     Cr1736   1.952       .  S
O1730      C2259   1.257       .  A
C1731      O1994   1.257       .  A
C1731      O1732   1.267       .  A
C1731      C1769   1.466       .  S
O1732     Cr2001   2.035       .  S
O1733     Cr2001   1.900       .  S
O1733      C1734   1.229       .  A
C1734      O1990   1.243       .  A
Cr1735     O1738   1.774       .  S
Cr1736     O1738   1.757       .  S
Cr1737     O2260   2.035       .  S
Cr1737     O2261   1.900       .  S
Cr1737     O1738   1.809       .  S
O1739     Cr1757   1.953       .  S
O1740     Cr1757   1.963       .  S
C1741      O1742   1.296       .  A
O1742     Cr1758   2.072   1_455  S
O1743     Cr1758   2.088       .  S
O1743      C1744   1.291       .  A
C1744      O1745   1.249       .  A
C1744      C2291   1.511       .  S
O1745     Cr1759   1.914       .  S
O1746     Cr1759   2.071       .  S
O1746      C1747   1.283   1_655  A
C1747      C1797   1.466       .  S
O1748     Cr1757   1.944       .  S
O1748      C1756   1.243       .  A
O1749     Cr1757   1.966       .  S
O1749      C1750   1.263       .  A
O1751     Cr1758   2.020   1_455  S
O1752     Cr1758   1.952       .  S
O1752      C2281   1.257       .  A
C1753      O2016   1.257       .  A
C1753      O1754   1.267       .  A
O1754     Cr2023   2.035       .  S
O1755     Cr2023   1.900       .  S
C1756      C2306   1.380       .  S
Cr1758     O1760   1.757       .  S
Cr1759     O2282   2.035       .  S
Cr1759     O2283   1.900       .  S
Cr1759     O1760   1.809       .  S
O1761     Cr2043   1.953       .  S
O1761      C1769   1.257       .  A
O1762     Cr1779   1.963       .  S
O1762      C2291   1.243       .  A
C1763      O2026   1.243       .  A
C1763      O1764   1.296       .  A
C1763      C2008   1.511       .  S
O1764     Cr1780   2.073       .  S
O1765     Cr1780   2.088       .  S
O1765      C1766   1.291       .  A
C1766      O1767   1.249       .  A
O1767     Cr1781   1.914       .  S
O1768     Cr1781   2.071       .  S
O1768      C1769   1.283       .  A
O1770     Cr1779   1.944       .  S
O1770      C2306   1.243       .  A
O1771     Cr1779   1.966       .  S
O1771      C1772   1.263       .  A
C1772      O2301   1.274       .  A
C1772      C1794   1.459       .  S
O1773     Cr1780   2.020       .  S
O1773      C2036   1.274       .  A
O1774     Cr1780   1.952       .  S
C1775      O1776   1.267       .  A
C1775      C1813   1.466       .  S
C1778      O2034   1.243       .  A
C1778      C2020   1.380       .  S
Cr1779     O2289   1.953       .  S
Cr1779     O2310   1.774   1_545  S
Cr1780     O1782   1.757       .  S
Cr1781     O1782   1.809       .  S
O1782     Cr2043   1.774       .  S
O1783     Cr1801   1.953       .  S
O1783      C1791   1.257       .  A
O1784     Cr1801   1.963   1_554  S
O1784      C1785   1.243       .  A
C1785      O1786   1.296       .  A
C1785      C1810   1.511       .  S
O1786     Cr1802   2.073       .  S
O1787     Cr1802   2.088       .  S
O1787      C1788   1.291   1_554  A
C1788      O1789   1.249       .  A
O1789     Cr1803   1.914       .  S
O1790     Cr1803   2.071       .  S
O1790      C1791   1.283       .  A
C1791      C1841   1.466       .  S
O1792     Cr1801   1.944       .  S
O1792      C2328   1.243       .  A
O1793     Cr1801   1.966   1_554  S
O1793      C1794   1.263       .  A
C1794      O1795   1.274       .  A
O1795     Cr1802   2.020       .  S
O1796     Cr1802   1.952       .  S
C1797      O1798   1.267       .  A
C1800      O2056   1.243       .  A
C1800      C1822   1.380   1_556  S
Cr1801     O1804   1.774   1_556  S
Cr1802     O1804   1.757       .  S
Cr1803     O1804   1.809   1_556  S
O1805     Cr1823   1.953       .  S
O1806     Cr1823   1.963   1_556  S
C1807      O1808   1.296       .  A
O1808     Cr1824   2.072   1_455  S
O1809     Cr1824   2.088       .  S
O1809      C1810   1.291   1_556  A
C1810      O1811   1.249       .  A
O1811     Cr1825   1.914       .  S
O1812     Cr1825   2.071       .  S
O1812      C1813   1.283   1_655  A
O1814     Cr1823   1.944       .  S
O1814      C1822   1.243       .  A
O1815     Cr1823   1.966   1_556  S
O1815      C1816   1.263       .  A
C1816      C1838   1.460       .  S
O1817     Cr1824   2.020   1_455  S
O1818     Cr1824   1.952       .  S
O1818      C1819   1.257       .  A
C1819      O1820   1.267       .  A
O1820     Cr1825   2.035   1_556  S
O1821     Cr1825   1.900   1_556  S
Cr1824     O1826   1.757       .  S
Cr1825     O1826   1.809   1_554  S
O1827     Cr1845   1.953       .  S
O1827      C2099   1.257       .  A
O1828     Cr1845   1.963       .  S
O1828      C1829   1.243       .  A
C1829      O2094   1.296       .  A
O1830     Cr1846   2.072   1_565  S
O1830      C2357   1.296       .  A
O1831     Cr1846   2.088       .  S
O1831      C1832   1.291       .  A
C1832      O1833   1.249       .  A
O1833     Cr1847   1.914       .  S
O1834     Cr1847   2.071   1_565  S
O1834      C1835   1.283       .  A
C1835      O2355   1.257       .  A
C1835      C2149   1.466       .  S
O1836     Cr1845   1.944       .  S
O1836      C1844   1.243       .  A
O1837     Cr1845   1.966       .  S
O1837      C1838   1.263       .  A
C1838      O1839   1.274       .  A
O1839     Cr2110   2.020       .  S
O1840     Cr1846   1.952       .  S
O1840      C1841   1.257       .  A
C1841      O1842   1.267       .  A
O1842     Cr1847   2.034       .  S
O1843     Cr1847   1.900   1_565  S
O1843      C2372   1.229       .  A
C1844      O2107   1.229       .  A
Cr1845     O2112   1.774       .  S
Cr1846     O2367   2.020   1_545  S
Cr1846     O1848   1.757   1_545  S
Cr1847     O1848   1.809   1_545  S
O1848     Cr2373   1.774       .  S
O1849     Cr1867   1.953       .  S
O1849      C1857   1.257       .  A
O1850     Cr1867   1.963       .  S
O1850      C1851   1.243       .  A
C1851      O1852   1.296       .  A
C1851      C2096   1.511       .  S
O1852     Cr1868   2.073       .  S
O1853     Cr1868   2.088       .  S
O1853      C1854   1.291       .  A
C1854      O1855   1.249       .  A
C1854      C2093   1.511       .  S
O1855     Cr1869   1.914       .  S
O1856     Cr1869   2.071       .  S
O1856      C1857   1.283       .  A
C1857      C2083   1.466       .  S
O1858     Cr1867   1.944       .  S
O1858      C1866   1.243       .  A
O1859     Cr1867   1.966       .  S
O1859      C1860   1.263       .  A
C1860      O1861   1.274       .  A
C1860      C1882   1.459       .  S
O1861     Cr1868   2.020       .  S
O1862     Cr1868   1.952       .  S
O1862      C1863   1.257       .  A
C1863      O1864   1.267       .  A
C1863      C2165   1.466       .  S
O1864     Cr1869   2.035       .  S
O1865     Cr1869   1.900       .  S
O1865      C1866   1.229       .  A
Cr1867     O1870   1.774       .  S
Cr1868     O1870   1.757       .  S
Cr1869     O1870   1.809       .  S
O1871     Cr1889   1.953       .  S
O1872     Cr1889   1.963       .  S
C1873      O1874   1.296       .  A
O1874     Cr1890   2.072       .  S
O1875     Cr1890   2.088       .  S
O1875      C1876   1.291       .  A
C1876      O1877   1.249       .  A
C1876      C1895   1.511       .  S
O1877     Cr1891   1.914       .  S
O1878     Cr1891   2.071       .  S
O1878      C1879   1.283       .  A
O1880     Cr1889   1.944       .  S
O1880      C1888   1.243       .  A
O1881     Cr1889   1.966       .  S
O1881      C1882   1.263       .  A
O1883     Cr1890   2.020       .  S
O1884     Cr1890   1.952       .  S
O1884      C1885   1.257       .  A
C1885      O1886   1.267       .  A
C1885      C2363   1.466       .  S
O1886     Cr1891   2.035       .  S
O1887     Cr1891   1.900       .  S
C1888      C1910   1.380       .  S
Cr1890     O1892   1.757       .  S
Cr1891     O1892   1.809       .  S
O1893     Cr1911   1.953       .  S
O1893      C2165   1.257       .  A
O1894     Cr1911   1.963       .  S
O1894      C1895   1.243       .  A
C1895      O2160   1.296       .  A
O1896     Cr1912   2.073       .  S
O1897     Cr1912   2.088       .  S
O1897      C1898   1.291       .  A
C1898      O1899   1.249       .  A
O1899     Cr1913   1.914       .  S
O1900     Cr1913   2.071       .  S
O1900      C1901   1.283       .  A
O1902     Cr1911   1.944       .  S
O1902      C1910   1.243       .  A
O1903     Cr1911   1.966       .  S
O1903      C1904   1.263       .  A
C1904      O1905   1.274       .  A
C1904      C1926   1.459       .  S
O1905     Cr2176   2.020       .  S
O1906     Cr1912   1.952       .  S
O1906      C1907   1.257       .  A
O1909     Cr1913   1.900       .  S
C1910      O2173   1.229       .  A
Cr1911     O2178   1.774       .  S
Cr1912     O1914   1.757       .  S
Cr1913     O1914   1.809       .  S
O1915     Cr1933   1.953       .  S
O1915      C1923   1.257       .  A
O1916     Cr1933   1.963       .  S
O1916      C1917   1.243       .  A
C1917      O1918   1.296       .  A
C1917      C1942   1.511       .  S
O1918     Cr1934   2.073       .  S
O1919     Cr1934   2.088       .  S
O1919      C1920   1.291       .  A
C1920      O1921   1.249       .  A
O1921     Cr1935   1.914       .  S
O1922     Cr1935   2.071       .  S
O1922      C1923   1.283       .  A
C1923      C1973   1.466       .  S
O1924     Cr1933   1.944       .  S
O1924      C1932   1.243       .  A
O1925     Cr1933   1.966       .  S
O1925      C1926   1.263       .  A
C1926      O1927   1.274       .  A
O1927     Cr1934   2.020       .  S
O1928     Cr1934   1.952       .  S
O1928      C1929   1.257       .  A
O1931     Cr1935   1.900       .  S
O1931      C1932   1.229       .  A
C1932      C1954   1.380       .  S
Cr1933     O1936   1.774       .  S
Cr1934     O1936   1.757       .  S
Cr1935     O1936   1.809       .  S
O1937     Cr1955   1.953       .  S
O1938     Cr1955   1.963       .  S
C1939      O1940   1.296       .  A
O1940     Cr1956   2.072       .  S
O1941     Cr1956   2.088       .  S
O1941      C1942   1.291       .  A
C1942      O1943   1.249       .  A
O1943     Cr1957   1.914       .  S
O1944     Cr1957   2.071       .  S
O1944      C1945   1.283       .  A
O1946     Cr1955   1.944       .  S
O1947     Cr1955   1.966       .  S
O1947      C1948   1.263       .  A
C1948      C1970   1.460       .  S
O1949     Cr1956   2.020       .  S
O1950     Cr1956   1.952       .  S
O1950      C1951   1.257       .  A
C1951      O1952   1.267       .  A
C1951      C1989   1.466       .  S
O1952     Cr1957   2.035       .  S
O1953     Cr1957   1.900       .  S
C1954      O2210   1.243       .  A
Cr1956     O1958   1.757       .  S
Cr1957     O1958   1.809       .  S
O1959     Cr2241   1.953       .  S
O1959      C1967   1.257       .  A
O1960     Cr1977   1.963       .  S
C1961      O2224   1.243       .  A
C1961      O1962   1.296       .  A
C1961      C2250   1.511       .  S
O1962     Cr1978   2.072       .  S
O1963     Cr1978   2.088       .  S
O1963      C1964   1.291       .  A
C1964      O1965   1.249       .  A
C1964      C1983   1.511       .  S
O1965     Cr1979   1.914       .  S
O1966     Cr1979   2.071       .  S
O1966      C1967   1.283       .  A
C1967      C2017   1.466       .  S
O1968     Cr1977   1.944       .  S
O1969     Cr1977   1.966       .  S
O1969      C1970   1.263       .  A
O1971     Cr1978   2.020       .  S
O1971      C2234   1.274       .  A
O1972     Cr1978   1.952       .  S
O1972      C1973   1.257       .  A
C1973      O1974   1.267       .  A
O1974     Cr1979   2.034       .  S
O1975     Cr1979   1.900       .  S
O1975      C1976   1.229       .  A
C1976      O2232   1.243       .  A
Cr1978     O1980   1.757       .  S
Cr1979     O1980   1.809       .  S
O1980     Cr2241   1.774       .  S
O1981     Cr1999   1.953       .  S
O1981      C1989   1.257       .  A
O1982     Cr1999   1.963       .  S
O1982      C1983   1.243       .  A
C1983      O1984   1.296       .  A
O1984     Cr2000   2.073       .  S
O1985     Cr2000   2.088       .  S
O1985      C1986   1.291       .  A
C1986      O1987   1.249       .  A
O1987     Cr2001   1.914       .  S
O1988     Cr2001   2.071       .  S
O1988      C1989   1.283       .  A
O1990     Cr1999   1.944       .  S
O1991     Cr1999   1.966       .  S
O1991      C1992   1.263       .  A
C1992      O1993   1.274       .  A
C1992      C2014   1.459       .  S
O1993     Cr2000   2.020       .  S
O1994     Cr2000   1.952       .  S
C1995      O2258   1.257       .  A
C1995      O1996   1.267       .  A
C1995      C2033   1.466       .  S
O1996     Cr2265   2.035       .  S
O1997     Cr2265   1.900       .  S
O1997      C1998   1.229       .  A
C1998      O2254   1.243       .  A
Cr1999     O2002   1.774       .  S
Cr2000     O2002   1.757       .  S
Cr2001     O2002   1.809       .  S
O2003     Cr2021   1.953       .  S
O2004     Cr2021   1.963       .  S
C2005      O2006   1.296       .  A
O2006     Cr2022   2.072   1_455  S
O2007     Cr2022   2.088       .  S
O2007      C2008   1.291       .  A
C2008      O2009   1.249       .  A
O2009     Cr2023   1.914       .  S
O2010     Cr2023   2.071       .  S
O2010      C2011   1.283   1_655  A
C2011      C2061   1.466       .  S
O2012     Cr2021   1.944       .  S
O2012      C2020   1.243       .  A
O2013     Cr2021   1.966       .  S
O2013      C2014   1.263       .  A
O2015     Cr2022   2.020   1_455  S
O2016     Cr2022   1.952       .  S
C2017      O2280   1.257       .  A
C2017      O2018   1.267       .  A
O2018     Cr2287   2.035       .  S
O2019     Cr2287   1.900       .  S
Cr2022     O2024   1.757       .  S
Cr2023     O2024   1.809       .  S
O2025     Cr2307   1.953       .  S
O2025      C2033   1.257       .  A
O2026     Cr2043   1.963       .  S
C2027      O2290   1.243       .  A
C2027      O2028   1.296       .  A
C2027      C2272   1.511       .  S
O2028     Cr2044   2.073       .  S
O2029     Cr2044   2.088       .  S
O2029      C2030   1.291       .  A
C2030      O2031   1.249       .  A
O2031     Cr2045   1.914       .  S
O2032     Cr2045   2.071       .  S
O2032      C2033   1.283       .  A
O2034     Cr2043   1.944       .  S
O2035     Cr2043   1.966       .  S
O2035      C2036   1.263       .  A
C2036      C2058   1.459       .  S
O2037     Cr2044   2.020       .  S
O2037      C2300   1.274       .  A
O2038     Cr2044   1.952       .  S
C2039      O2040   1.267       .  A
C2039      C2077   1.466       .  S
C2042      O2298   1.243       .  A
C2042      C2284   1.380       .  S
Cr2044     O2046   1.757       .  S
Cr2045     O2046   1.809       .  S
O2046     Cr2307   1.774       .  S
O2047     Cr2065   1.953       .  S
O2047      C2055   1.257       .  A
O2048     Cr2065   1.963   1_554  S
O2048      C2049   1.243       .  A
C2049      O2050   1.296       .  A
C2049      C2074   1.511       .  S
O2050     Cr2066   2.073       .  S
O2051     Cr2066   2.088       .  S
O2051      C2052   1.291   1_554  A
C2052      O2053   1.249       .  A
O2053     Cr2067   1.914       .  S
O2054     Cr2067   2.071       .  S
O2054      C2055   1.283       .  A
C2055      C2105   1.466       .  S
O2056     Cr2065   1.944       .  S
O2057     Cr2065   1.966   1_554  S
O2057      C2058   1.263       .  A
C2058      O2059   1.274       .  A
O2059     Cr2066   2.020       .  S
O2060     Cr2066   1.952       .  S
C2061      O2062   1.267       .  A
C2064      O2320   1.243       .  A
C2064      C2086   1.380   1_556  S
Cr2065     O2068   1.774   1_556  S
Cr2066     O2068   1.757       .  S
Cr2067     O2068   1.809   1_556  S
O2069     Cr2087   1.953       .  S
O2070     Cr2087   1.963   1_556  S
C2071      O2072   1.296       .  A
O2072     Cr2088   2.072   1_455  S
O2073     Cr2088   2.088       .  S
O2073      C2074   1.291   1_556  A
C2074      O2075   1.249       .  A
O2075     Cr2089   1.914       .  S
O2076     Cr2089   2.071       .  S
O2076      C2077   1.283   1_655  A
O2078     Cr2087   1.944       .  S
O2078      C2086   1.243       .  A
O2079     Cr2087   1.966   1_556  S
O2079      C2080   1.263       .  A
C2080      C2102   1.460       .  S
O2081     Cr2088   2.020   1_455  S
O2082     Cr2088   1.952       .  S
O2082      C2083   1.257       .  A
C2083      O2084   1.267       .  A
O2084     Cr2089   2.035   1_556  S
O2085     Cr2089   1.900   1_556  S
Cr2088     O2090   1.757       .  S
Cr2089     O2090   1.809   1_554  S
O2091     Cr2109   1.953       .  S
O2091      C2363   1.257       .  A
O2092     Cr2109   1.963       .  S
O2092      C2093   1.243       .  A
C2093      O2358   1.296       .  A
O2094     Cr2110   2.072       .  S
O2095     Cr2110   2.088       .  S
O2095      C2096   1.291       .  A
C2096      O2097   1.249       .  A
O2097     Cr2111   1.914       .  S
O2098     Cr2111   2.071       .  S
O2098      C2099   1.283       .  A
O2100     Cr2109   1.944       .  S
O2100      C2108   1.243       .  A
O2101     Cr2109   1.966       .  S
O2101      C2102   1.263       .  A
C2102      O2103   1.274       .  A
O2103     Cr2374   2.020       .  S
O2104     Cr2110   1.952       .  S
O2104      C2105   1.257       .  A
C2105      O2106   1.267       .  A
O2106     Cr2111   2.034       .  S
O2107     Cr2111   1.900       .  S
C2108      O2371   1.229       .  A
Cr2109     O2376   1.774       .  S
Cr2110     O2112   1.757       .  S
Cr2111     O2112   1.809       .  S
O2113     Cr2131   1.953       .  S
O2113      C2121   1.257       .  A
O2114     Cr2131   1.963       .  S
O2114      C2115   1.243       .  A
C2115      O2116   1.296       .  A
C2115      C2360   1.511       .  S
O2116     Cr2132   2.073       .  S
O2117     Cr2132   2.088       .  S
O2117      C2118   1.291       .  A
C2118      O2119   1.249       .  A
C2118      C2357   1.511       .  S
O2119     Cr2133   1.914       .  S
O2120     Cr2133   2.071       .  S
O2120      C2121   1.283       .  A
C2121      C2347   1.466       .  S
O2122     Cr2131   1.944       .  S
O2122      C2130   1.243       .  A
O2123     Cr2131   1.966       .  S
O2123      C2124   1.263       .  A
C2124      O2125   1.274       .  A
C2124      C2146   1.459       .  S
O2125     Cr2132   2.020       .  S
O2126     Cr2132   1.952       .  S
O2126      C2127   1.257       .  A
C2127      O2128   1.267       .  A
O2128     Cr2133   2.035       .  S
O2129     Cr2133   1.900       .  S
O2129      C2130   1.229       .  A
Cr2131     O2134   1.774       .  S
Cr2132     O2134   1.757       .  S
Cr2133     O2134   1.809       .  S
O2135     Cr2153   1.953       .  S
O2136     Cr2153   1.963       .  S
C2137      O2138   1.296       .  A
O2138     Cr2154   2.072       .  S
O2139     Cr2154   2.088       .  S
O2139      C2140   1.291       .  A
C2140      O2141   1.249       .  A
C2140      C2159   1.511       .  S
O2141     Cr2155   1.914       .  S
O2142     Cr2155   2.071       .  S
O2142      C2143   1.283       .  A
O2144     Cr2153   1.944       .  S
O2144      C2152   1.243       .  A
O2145     Cr2153   1.966       .  S
O2145      C2146   1.263       .  A
O2147     Cr2154   2.020       .  S
O2148     Cr2154   1.952       .  S
O2148      C2149   1.257       .  A
C2149      O2150   1.267       .  A
O2150     Cr2155   2.035       .  S
O2151     Cr2155   1.900       .  S
C2152      C2174   1.380       .  S
Cr2154     O2156   1.757       .  S
Cr2155     O2156   1.809       .  S
O2157     Cr2175   1.953       .  S
O2158     Cr2175   1.963       .  S
O2158      C2159   1.243       .  A
O2160     Cr2176   2.073       .  S
O2161     Cr2176   2.088       .  S
O2161      C2162   1.291       .  A
C2162      O2163   1.249       .  A
O2163     Cr2177   1.914       .  S
O2164     Cr2177   2.071       .  S
O2164      C2165   1.283       .  A
O2166     Cr2175   1.944       .  S
O2166      C2174   1.243       .  A
O2167     Cr2175   1.966       .  S
O2167      C2168   1.263       .  A
C2168      O2169   1.274       .  A
C2168      C2190   1.459       .  S
O2170     Cr2176   1.952       .  S
O2170      C2171   1.257       .  A
O2173     Cr2177   1.900       .  S
Cr2176     O2178   1.757       .  S
Cr2177     O2178   1.809       .  S
O2179     Cr2197   1.953       .  S
O2179      C2187   1.257       .  A
O2180     Cr2197   1.963       .  S
O2180      C2181   1.243       .  A
C2181      O2182   1.296       .  A
C2181      C2206   1.511       .  S
O2182     Cr2198   2.073       .  S
O2183     Cr2198   2.088       .  S
O2183      C2184   1.291       .  A
C2184      O2185   1.249       .  A
O2185     Cr2199   1.914       .  S
O2186     Cr2199   2.071       .  S
O2186      C2187   1.283       .  A
C2187      C2237   1.466       .  S
O2188     Cr2197   1.944       .  S
O2188      C2196   1.243       .  A
O2189     Cr2197   1.966       .  S
O2189      C2190   1.263       .  A
C2190      O2191   1.274       .  A
O2191     Cr2198   2.020       .  S
O2192     Cr2198   1.952       .  S
O2192      C2193   1.257       .  A
O2195     Cr2199   1.900       .  S
O2195      C2196   1.229       .  A
C2196      C2218   1.380   1_565  S
Cr2197     O2200   1.774       .  S
Cr2198     O2200   1.757       .  S
Cr2199     O2200   1.809       .  S
O2201     Cr2219   1.953       .  S
O2202     Cr2219   1.963       .  S
C2203      O2204   1.296       .  A
O2204     Cr2220   2.072       .  S
O2205     Cr2220   2.088       .  S
O2205      C2206   1.291       .  A
C2206      O2207   1.249       .  A
O2207     Cr2221   1.914       .  S
O2208     Cr2221   2.071       .  S
O2208      C2209   1.283       .  A
O2210     Cr2219   1.944       .  S
O2211     Cr2219   1.966       .  S
O2211      C2212   1.263       .  A
C2212      C2234   1.460       .  S
O2213     Cr2220   2.020       .  S
O2214     Cr2220   1.952       .  S
O2214      C2215   1.257       .  A
C2215      O2216   1.267       .  A
C2215      C2253   1.466       .  S
O2216     Cr2221   2.035       .  S
O2217     Cr2221   1.900       .  S
Cr2220     O2222   1.757       .  S
Cr2221     O2222   1.809       .  S
O2223      C2231   1.257   1_545  A
O2224     Cr2241   1.963       .  S
C2225      O2226   1.296   1_545  A
O2226     Cr2242   2.072       .  S
O2227     Cr2242   2.088       .  S
O2227      C2228   1.291       .  A
C2228      O2229   1.249       .  A
C2228      C2247   1.511       .  S
O2229     Cr2243   1.914       .  S
O2230     Cr2243   2.071       .  S
O2230      C2231   1.283       .  A
C2231      C2281   1.466   1_565  S
O2232     Cr2241   1.944       .  S
O2233     Cr2241   1.966       .  S
O2233      C2234   1.263       .  A
O2235     Cr2242   2.020   1_545  S
O2236     Cr2242   1.952       .  S
O2236      C2237   1.257       .  A
C2237      O2238   1.267       .  A
O2238     Cr2243   2.034       .  S
O2239     Cr2243   1.900       .  S
O2239      C2240   1.229   1_565  A
Cr2242     O2244   1.757       .  S
Cr2243     O2244   1.809       .  S
O2245     Cr2263   1.953       .  S
O2245      C2253   1.257       .  A
O2246     Cr2263   1.963       .  S
O2246      C2247   1.243       .  A
C2247      O2248   1.296       .  A
O2248     Cr2264   2.073       .  S
O2249     Cr2264   2.088       .  S
O2249      C2250   1.291       .  A
C2250      O2251   1.249       .  A
O2251     Cr2265   1.914       .  S
O2252     Cr2265   2.071       .  S
O2252      C2253   1.283       .  A
O2254     Cr2263   1.944       .  S
O2255     Cr2263   1.966       .  S
O2255      C2256   1.263       .  A
C2256      O2257   1.274       .  A
C2256      C2278   1.459       .  S
O2257     Cr2264   2.020       .  S
O2258     Cr2264   1.952       .  S
C2259      O2260   1.267       .  A
C2259      C2297   1.466   1_545  S
O2261      C2262   1.229       .  A
Cr2263     O2266   1.774       .  S
Cr2264     O2266   1.757       .  S
Cr2265     O2266   1.809       .  S
O2267     Cr2285   1.953       .  S
O2268     Cr2285   1.963       .  S
C2269      O2270   1.296       .  A
O2270     Cr2286   2.072   1_455  S
O2271     Cr2286   2.088       .  S
O2271      C2272   1.291       .  A
C2272      O2273   1.249       .  A
O2273     Cr2287   1.914       .  S
O2274     Cr2287   2.071       .  S
O2274      C2275   1.283   1_655  A
C2275      C2325   1.466       .  S
O2276     Cr2285   1.944       .  S
O2276      C2284   1.243       .  A
O2277     Cr2285   1.966       .  S
O2277      C2278   1.263       .  A
O2279     Cr2286   2.020   1_455  S
O2280     Cr2286   1.952       .  S
C2281      O2282   1.267       .  A
Cr2286     O2288   1.757       .  S
Cr2287     O2288   1.809       .  S
O2289      C2297   1.257   1_545  A
O2290     Cr2307   1.963       .  S
C2291      O2292   1.296   1_545  A
O2292     Cr2308   2.073       .  S
O2293     Cr2308   2.088       .  S
O2293      C2294   1.291       .  A
C2294      O2295   1.249       .  A
O2295     Cr2309   1.914       .  S
O2296     Cr2309   2.071       .  S
O2296      C2297   1.283       .  A
O2298     Cr2307   1.944       .  S
O2299     Cr2307   1.966       .  S
O2299      C2300   1.263       .  A
C2300      C2322   1.459       .  S
O2301     Cr2308   2.020   1_545  S
O2302     Cr2308   1.952       .  S
C2303      O2304   1.267       .  A
C2303      C2341   1.466       .  S
Cr2308     O2310   1.757       .  S
Cr2309     O2310   1.809       .  S
O2311     Cr2329   1.953       .  S
O2311      C2319   1.257       .  A
O2312     Cr2329   1.963   1_554  S
O2312      C2313   1.243       .  A
C2313      O2314   1.296       .  A
C2313      C2338   1.511       .  S
O2314     Cr2330   2.073       .  S
O2315     Cr2330   2.088       .  S
O2315      C2316   1.291   1_554  A
C2316      O2317   1.249       .  A
O2317     Cr2331   1.914       .  S
O2318     Cr2331   2.071       .  S
O2318      C2319   1.283       .  A
C2319      C2369   1.466       .  S
O2320     Cr2329   1.944       .  S
O2321     Cr2329   1.966   1_554  S
O2321      C2322   1.263       .  A
C2322      O2323   1.274       .  A
O2323     Cr2330   2.020       .  S
O2324     Cr2330   1.952       .  S
C2325      O2326   1.267       .  A
C2328      C2350   1.380   1_546  S
Cr2329     O2332   1.774   1_556  S
Cr2330     O2332   1.757       .  S
Cr2331     O2332   1.809   1_556  S
O2333     Cr2351   1.953       .  S
O2334     Cr2351   1.963   1_556  S
C2335      O2336   1.296       .  A
O2336     Cr2352   2.072   1_455  S
O2337     Cr2352   2.088       .  S
O2337      C2338   1.291   1_556  A
C2338      O2339   1.249       .  A
O2339     Cr2353   1.914       .  S
O2340     Cr2353   2.071       .  S
O2340      C2341   1.283   1_655  A
O2342     Cr2351   1.944       .  S
O2342      C2350   1.243       .  A
O2343     Cr2351   1.966   1_556  S
O2343      C2344   1.263       .  A
C2344      C2366   1.460       .  S
O2345     Cr2352   2.020   1_455  S
O2346     Cr2352   1.952       .  S
O2346      C2347   1.257       .  A
C2347      O2348   1.267       .  A
O2348     Cr2353   2.035   1_556  S
O2349     Cr2353   1.900   1_556  S
Cr2352     O2354   1.757       .  S
Cr2353     O2354   1.809   1_554  S
O2355     Cr2373   1.953       .  S
O2356     Cr2373   1.963       .  S
O2356      C2357   1.243       .  A
O2358     Cr2374   2.072       .  S
O2359     Cr2374   2.088       .  S
O2359      C2360   1.291       .  A
C2360      O2361   1.249       .  A
O2361     Cr2375   1.914       .  S
O2362     Cr2375   2.071       .  S
O2362      C2363   1.283       .  A
O2364     Cr2373   1.944       .  S
O2364      C2372   1.243       .  A
O2365     Cr2373   1.966       .  S
O2365      C2366   1.263       .  A
C2366      O2367   1.274       .  A
O2368     Cr2374   1.952       .  S
O2368      C2369   1.257       .  A
C2369      O2370   1.267       .  A
O2370     Cr2375   2.034       .  S
O2371     Cr2375   1.900       .  S
Cr2374     O2376   1.757       .  S
Cr2375     O2376   1.809       .  S
