geometry optimzed in LAMMPS
_audit_creation_date              2020-11-30 
_audit_creation_method            'lammps2cif' 
_symmetry_space_group_name_H-M    'P1' 
_symmetry_Int_Tables_number       1 
_symmetry_cell_setting            triclinic 
loop_ 
_symmetry_equiv_pos_as_xyz 
  x,y,z 
_cell_length_a                    41.10172728 
_cell_length_b                    41.1072112510679 
_cell_length_c                    73.61182648427209 
_cell_angle_alpha                 90.02677083411476 
_cell_angle_beta                  89.95304066416782 
_cell_angle_gamma                 120.0226956005383 
loop_ 
_atom_site_label 
_atom_site_type_symbol 
_atom_site_fract_x 
_atom_site_fract_y 
_atom_site_fract_z 
_atom_site_charge 
Zr1        Zr  0.60881172  0.75717812  0.64276658     2.17500
O2          O  0.57533667  0.71303991  0.66728942    -0.50700
O3          O  0.56027790  0.77358039  0.63804738    -0.73900
O4          O  0.61478636  0.78811877  0.67174987    -0.80700
O5          O  0.57164273  0.67717390  0.60813069    -0.82500
O6          O  0.67281741  0.84030659  0.67330279    -0.78100
O7          O  0.55826508  0.69475647  0.63522606    -0.89700
O8          O  0.57772473  0.81350115  0.61397964    -0.75700
O9          O  0.64217581  0.82216850  0.63518747    -0.85200
O10         O  0.60424921  0.75993422  0.61061813    -0.84900
O11         O  0.67159357  0.77947004  0.65352552    -0.71600
O12         O  0.63646608  0.72247442  0.63049345    -0.83700
Zr13       Zr  0.72977130  0.81455659  0.60071503     2.26400
Zr14       Zr  0.70534511  0.84453243  0.64509835     2.06300
Zr15       Zr  0.63318936  0.72680066  0.59820901     2.10000
Zr16       Zr  0.63806364  0.82465725  0.60303443     1.78800
O17         O  0.63234223  0.66735170  0.59562593    -0.92500
O18         O  0.64764756  0.88713177  0.60921890    -0.40400
O19         O  0.66690687  0.79182162  0.58995578    -0.77000
O20         O  0.70167640  0.84912264  0.61277065    -0.95700
O21         O  0.73386837  0.81112957  0.63278271    -0.89000
O22         O  0.69608067  0.74960481  0.60840806    -0.91800
C23         C  0.55495785  0.79403823  0.62666579     1.01900
C24         C  0.55054974  0.67173291  0.62199954     1.14900
C25         C  0.64049594  0.81716752  0.67993465     1.05600
O26         O  0.70736486  0.90427459  0.64929248    -0.94000
O27         O  0.76652478  0.89459977  0.63520737    -0.89700
O28         O  0.78098966  0.87683637  0.60844731    -0.82900
C29         C  0.78795909  0.90017117  0.62147604     1.12300
O30         O  0.66975229  0.70001951  0.66458581    -0.96000
Zr31       Zr  0.69989533  0.74633712  0.64046643     1.88900
O32         O  0.78104011  0.80340155  0.60792120    -0.72600
O33         O  0.74927816  0.85509069  0.66967186    -0.51900
O34         O  0.73602989  0.76720653  0.66852233    -0.96500
O35         O  0.69407819  0.68581253  0.63300573    -0.53800
O36         O  0.76346813  0.76311897  0.63190870    -0.73100
C37         C  0.78712944  0.78438634  0.61987449     0.99200
O38         O  0.75599802  0.85343057  0.57362777    -0.61900
O39         O  0.59289133  0.71581596  0.57192678    -0.56700
O40         O  0.72747929  0.77973046  0.57357065    -0.93400
O41         O  0.66812449  0.72969098  0.57097510    -0.91800
O42         O  0.59732350  0.80091155  0.57653066    -0.92200
O43         O  0.66248629  0.86685682  0.57706951    -0.91000
C44         C  0.70194413  0.75059882  0.56532548     1.18100
H45         H  0.57839322  0.74857258  0.60673768     0.34000
H46         H  0.71574281  0.87506286  0.60898776     0.44900
H47         H  0.70694811  0.73615948  0.60263343     0.38400
H48         H  0.67163209  0.77669296  0.66654494     0.34900
H49         H  0.62734285  0.88816878  0.60247683     0.26700
H50         H  0.75144523  0.87695176  0.67640111     0.32600
H51         H  0.75015157  0.75353935  0.66902656     0.38500
H52         H  0.58010516  0.81111852  0.57762094     0.33000
H53         H  0.58476231  0.68973668  0.56813169     0.31800
H54         H  0.61479897  0.65402433  0.58550754     0.33500
H55         H  0.70985018  0.69035311  0.62208509     0.32500
H56         H  0.68791845  0.87049808  0.57506998     0.36500
H57         H  0.73536215  0.84293108  0.56460711     0.29200
H58         H  0.55836832  0.72111028  0.67261043     0.33500
H59         H  0.68838502  0.69281898  0.66841123     0.36300
H60         H  0.56987636  0.71457139  0.57685312     0.28900
H61         H  0.75872157  0.87810010  0.57674776     0.41800
H62         H  0.68072992  0.89757876  0.65048029     0.31800
H63         H  0.64071974  0.88642192  0.62215456     0.39500
H64         H  0.66794816  0.67026113  0.62860788     0.31300
H65         H  0.73547499  0.83356964  0.67802353     0.31400
H66         H  0.59443108  0.71828886  0.67677066     0.31600
Zr67       Zr  0.78975081  0.56834822  0.36498713     2.17500
O68         O  0.74319728  0.53059177  0.34205509    -0.50700
O69         O  0.80894511  0.52196126  0.37051512    -0.73900
O70         O  0.81821216  0.57236160  0.33537910    -0.80700
O71         O  0.71194839  0.53324885  0.40072940    -0.82500
O72         O  0.87074743  0.62987668  0.33264000    -0.78100
O73         O  0.72927430  0.51695623  0.37436909    -0.89700
O74         O  0.84920687  0.54145899  0.39449927    -0.75700
O75         O  0.85500248  0.60250320  0.37182382    -0.85200
O76         O  0.79426701  0.56731379  0.39721044    -0.84900
O77         O  0.81099955  0.63005569  0.35285818    -0.71600
O78         O  0.75528316  0.59709302  0.37651640    -0.83700
Zr79       Zr  0.84877474  0.69313428  0.40431607     2.26400
Zr80       Zr  0.87655995  0.66446187  0.36036090     2.06300
Zr81       Zr  0.76089618  0.59658196  0.40884934     2.10000
Zr82       Zr  0.85937635  0.60216181  0.40405789     1.78800
O83         O  0.69910864  0.59076104  0.41159940    -0.92500
O84         O  0.92201032  0.61329134  0.39685346    -0.40400
O85         O  0.82626416  0.63129361  0.41651603    -0.77000
O86         O  0.88298738  0.66440913  0.39271713    -0.95700
O87         O  0.84389538  0.69413925  0.37219563    -0.89000
O88         O  0.78333756  0.65868867  0.39745510    -0.91800
C89         C  0.83009755  0.51793111  0.38201264     1.01900
C90         C  0.70675057  0.51035572  0.38770262     1.14900
C91         C  0.84689592  0.59723151  0.32659436     1.05600
O92         O  0.93574606  0.66515235  0.35657062    -0.94000
O93         O  0.92694095  0.72665748  0.36874895    -0.89700
O94         O  0.90956712  0.74447066  0.39465423    -0.82900
C95         C  0.93251538  0.74999845  0.38160431     1.12300
O96         O  0.73046410  0.62694297  0.34248925    -0.96000
Zr97       Zr  0.77880238  0.65989810  0.36542259     1.88900
O98         O  0.83684796  0.74364696  0.39693325    -0.72600
O99         O  0.88657031  0.70644890  0.33495580    -0.51900
O100        O  0.79705502  0.69391928  0.33673992    -0.96500
O101        O  0.72012157  0.65762889  0.37348815    -0.53800
O102        O  0.79761129  0.72485029  0.37254659    -0.73100
C103        C  0.81830658  0.74912230  0.38450899     0.99200
O104        O  0.89105552  0.72214871  0.43006871    -0.61900
O105        O  0.75398663  0.56042126  0.43625645    -0.56700
O106        O  0.81528077  0.69321488  0.43149157    -0.93400
O107        O  0.76353693  0.63502861  0.43456200    -0.91800
O108        O  0.84028760  0.56315369  0.43124543    -0.92200
O109        O  0.90303030  0.63245673  0.42909308    -0.91000
C110        C  0.78540817  0.66899478  0.43976448     1.18100
H111        H  0.78347141  0.54190825  0.40168945     0.34000
H112        H  0.90912003  0.67901559  0.39611909     0.44900
H113        H  0.77011598  0.67008410  0.40294480     0.38400
H114        H  0.80740885  0.62891628  0.33986756     0.34900
H115        H  0.92555165  0.59604302  0.40492251     0.26700
H116        H  0.90697963  0.70657069  0.32774743     0.32600
H117        H  0.78472713  0.70934889  0.33676624     0.38500
H118        H  0.85746186  0.55281984  0.43184800     0.33000
H119        H  0.72742335  0.55007898  0.43991359     0.31800
H120        H  0.69028173  0.58037105  0.42391412     0.33500
H121        H  0.72679681  0.67707503  0.38295046     0.32500
H122        H  0.89770132  0.65212542  0.43340942     0.36500
H123        H  0.88051849  0.70332135  0.43995212     0.29200
H124        H  0.75189090  0.51413731  0.33671954     0.33500
H125        H  0.72257068  0.64496003  0.33850608     0.36300
H126        H  0.75543892  0.53829243  0.43207544     0.28900
H127        H  0.91458848  0.72258417  0.42667684     0.41800
H128        H  0.92847588  0.63862876  0.35428093     0.31800
H129        H  0.91967711  0.60262355  0.38454523     0.39500
H130        H  0.70537288  0.63348634  0.37999529     0.31300
H131        H  0.86387728  0.69278599  0.32728966     0.31400
H132        H  0.74618913  0.54837769  0.33225322     0.31600
Zr133      Zr  0.39483460  0.14549931  0.36263977     2.17500
O134        O  0.42501030  0.12997213  0.33827923    -0.50700
O135        O  0.44556182  0.20955893  0.36752267    -0.73900
O136        O  0.39223017  0.17311529  0.33385979    -0.80700
O137        O  0.42858667  0.10137235  0.39805064    -0.82500
O138        O  0.33560813  0.17030960  0.33170274    -0.78100
O139        O  0.44413371  0.13236778  0.37095361    -0.89700
O140        O  0.42893924  0.23394463  0.39115227    -0.75700
O141        O  0.36360051  0.17956873  0.36944468    -0.85200
O142        O  0.39872763  0.15375052  0.39473399    -0.84900
O143        O  0.33185796  0.10671727  0.35164167    -0.71600
O144        O  0.36429234  0.08324160  0.37521941    -0.83700
Zr145      Zr  0.27300310  0.08769463  0.40424931     2.26400
Zr146      Zr  0.30040469  0.14070016  0.35922984     2.06300
Zr147      Zr  0.36757467  0.09193672  0.40741462     2.10000
Zr148      Zr  0.36693070  0.18715985  0.40152859     1.78800
O149        O  0.36630058  0.03224993  0.40985411    -0.92500
O150        O  0.36149492  0.24181377  0.39357078    -0.40400
O151        O  0.33612651  0.12588625  0.41506818    -0.77000
O152        O  0.30336295  0.14982488  0.39147843    -0.95700
O153        O  0.26912446  0.07924946  0.37219191    -0.89000
O154        O  0.30432713  0.05375388  0.39724505    -0.91800
C155        C  0.45168386  0.23592398  0.37872466     1.01900
C156        C  0.45046162  0.11642795  0.38436373     1.14900
C157        C  0.36806241  0.17866163  0.32551589     1.05600
O158        O  0.29810889  0.19833334  0.35527286    -0.94000
O159        O  0.23898443  0.13011726  0.36808856    -0.89700
O160        O  0.22225883  0.09814609  0.39494160    -0.82900
C161        C  0.21638546  0.11423511  0.38142509     1.12300
O162        O  0.32835784  0.02524400  0.34179044    -0.96000
Zr163      Zr  0.30044757  0.04552900  0.36526088     1.88900
O164        O  0.22067356  0.02501770  0.39858634    -0.72600
O165        O  0.25864904  0.10865911  0.33375122    -0.51900
O166        O  0.26463502  0.03111230  0.33713207    -0.96500
O167        O  0.30232054  0.98908599  0.37365296    -0.53800
O168        O  0.23630961  0.00088033  0.37446784    -0.73100
C169        C  0.21346664  0.99932869  0.38678633     0.99200
O170        O  0.24792489  0.10622541  0.42979938    -0.61900
O171        O  0.40811337  0.11984902  0.43375150    -0.56700
O172        O  0.27401887  0.05675810  0.43228870    -0.93400
O173        O  0.33165460  0.06171854  0.43470035    -0.91800
O174        O  0.40395913  0.20290318  0.42929334    -0.92200
O175        O  0.34073726  0.20793511  0.42556202    -0.91000
C176        C  0.29841475  0.05131148  0.44053711     1.18100
H177        H  0.42451523  0.16748019  0.39878356     0.34000
H178        H  0.28991557  0.16258334  0.39486756     0.44900
H179        H  0.29248209  0.02963512  0.40324711     0.38400
H180        H  0.33216366  0.10373679  0.33864214     0.34900
H181        H  0.38162452  0.26284329  0.40055536     0.26700
H182        H  0.25830667  0.12892648  0.32664107     0.32600
H183        H  0.24666973  0.00376004  0.33766502     0.38500
H184        H  0.41746437  0.23069617  0.42983393     0.33000
H185        H  0.41881085  0.10339406  0.43617315     0.31800
H186        H  0.38122731  0.03478943  0.42085749     0.33500
H187        H  0.28430469  0.97767069  0.38381563     0.32500
H188        H  0.32580398  0.18528906  0.43310868     0.36500
H189        H  0.26723941  0.11423743  0.43943190     0.29200
H190        H  0.44329666  0.15423410  0.33265714     0.33500
H191        H  0.30803601  0.00036424  0.33767444     0.36300
H192        H  0.42962222  0.14358937  0.42925678     0.28900
H193        H  0.24929630  0.12994486  0.42592028     0.41800
H194        H  0.32471860  0.21843416  0.35428490     0.31800
H195        H  0.37000355  0.24737138  0.38078549     0.39500
H196        H  0.32730509  0.99854186  0.37929859     0.31300
H197        H  0.27253521  0.10000813  0.32600360     0.31400
H198        H  0.40526046  0.11689300  0.32897598     0.31600
Zr199      Zr  0.21593180  0.78537156  0.64231472     2.17500
O200        O  0.26415820  0.80045255  0.66529487    -0.50700
O201        O  0.19910499  0.72003143  0.63755987    -0.73900
O202        O  0.18868889  0.76090950  0.67206272    -0.80700
O203        O  0.29275346  0.82920418  0.60603757    -0.82500
O204        O  0.13456352  0.76311439  0.67443994    -0.78100
O205        O  0.27726292  0.79694038  0.63279145    -0.89700
O206        O  0.15804852  0.69725971  0.61390606    -0.75700
O207        O  0.15049018  0.75213254  0.63570860    -0.85200
O208        O  0.21090929  0.77817721  0.61014585    -0.84900
O209        O  0.19263598  0.82440310  0.65411002    -0.71600
O210        O  0.24792929  0.84784218  0.62999917    -0.83700
Zr211      Zr  0.15266380  0.84618617  0.60233992     2.26400
Zr212      Zr  0.12698383  0.79115450  0.64677441     2.06300
Zr213      Zr  0.24173522  0.84022229  0.59771753     2.10000
Zr214      Zr  0.14570019  0.74588004  0.60351996     1.78800
O215        O  0.30250368  0.89691296  0.59385434    -0.92500
O216        O  0.08396720  0.69229751  0.61022840    -0.40400
O217        O  0.17624744  0.80757702  0.59040849    -0.77000
O218        O  0.12050634  0.78352011  0.61446831    -0.95700
O219        O  0.15785557  0.85323405  0.63445527    -0.89000
O220        O  0.21813629  0.87899520  0.60899405    -0.91800
C221        C  0.17794109  0.69401454  0.62636124     1.01900
C222        C  0.29930503  0.81302945  0.61930486     1.14900
C223        C  0.15928882  0.75568558  0.68066160     1.05600
O224        O  0.06878735  0.73140726  0.64983830    -0.94000
O225        O  0.07546792  0.80124964  0.63832937    -0.89700
O226        O  0.09125675  0.83496131  0.61198323    -0.82900
C227        C  0.06879479  0.81766054  0.62520845     1.12300
O228        O  0.27007434  0.90409162  0.66497830    -0.96000
Zr229      Zr  0.22312989  0.88592439  0.64104307     1.88900
O230        O  0.16437192  0.90900980  0.60905797    -0.72600
O231        O  0.11375543  0.82035579  0.67239209    -0.51900
O232        O  0.20164762  0.90100855  0.66900825    -0.96500
O233        O  0.28333062  0.94054730  0.63306735    -0.53800
O234        O  0.20604660  0.93240671  0.63246870    -0.73100
C235        C  0.18434204  0.93458710  0.62065794     0.99200
O236        O  0.10897067  0.82951760  0.57695229    -0.61900
O237        O  0.24820555  0.80953997  0.57073192    -0.56700
O238        O  0.18451621  0.87863830  0.57451130    -0.93400
O239        O  0.23712767  0.87375976  0.57145914    -0.91800
O240        O  0.16777891  0.72913066  0.57629335    -0.92200
O241        O  0.10112189  0.72755480  0.57853095    -0.91000
C242        C  0.21441269  0.88467989  0.56608352     1.18100
H243        H  0.22243049  0.76411037  0.60583954     0.34000
H244        H  0.09427916  0.77109915  0.61114829     0.44900
H245        H  0.23071955  0.90340205  0.60327171     0.38400
H246        H  0.19625559  0.82732695  0.66709150     0.34900
H247        H  0.08352425  0.67083027  0.60388206     0.26700
H248        H  0.09296267  0.79921043  0.67902435     0.32600
H249        H  0.21293911  0.92867117  0.66886233     0.38500
H250        H  0.15355703  0.70131697  0.57599432     0.33000
H251        H  0.27389902  0.82689887  0.56622193     0.31800
H252        H  0.31268745  0.89280757  0.58243331     0.33500
H253        H  0.27755624  0.95398699  0.62359409     0.32500
H254        H  0.10439936  0.75154932  0.57379726     0.36500
H255        H  0.12003959  0.82181849  0.56706185     0.29200
H256        H  0.25785432  0.77625980  0.67108806     0.33500
H257        H  0.27690926  0.93002293  0.66845581     0.36300
H258        H  0.24942704  0.78755409  0.57533183     0.28900
H259        H  0.08643350  0.80573507  0.58062934     0.41800
H260        H  0.07677236  0.71312188  0.65317325     0.31800
H261        H  0.08496430  0.68706403  0.62327650     0.39500
H262        H  0.29706971  0.93002389  0.62654968     0.31300
H263        H  0.13577431  0.82921266  0.68051755     0.31400
H264        H  0.25947929  0.81473843  0.67477185     0.31600
Zr265      Zr  0.18350490  0.36202467  0.64128798     2.17500
O266        O  0.17076919  0.39661062  0.66449854    -0.50700
O267        O  0.24866867  0.41054405  0.63688172    -0.73900
O268        O  0.20787853  0.35874324  0.67101509    -0.80700
O269        O  0.14092484  0.39559520  0.60465330    -0.82500
O270        O  0.20412447  0.30179607  0.67373506    -0.78100
O271        O  0.17179260  0.41172839  0.63176640    -0.89700
O272        O  0.27295467  0.39203204  0.61398002    -0.75700
O273        O  0.21663090  0.32950143  0.63517456    -0.85200
O274        O  0.19204211  0.36442075  0.60919261    -0.84900
O275        O  0.14335382  0.29963524  0.65272299    -0.71600
O276        O  0.12139516  0.33216926  0.62849051    -0.83700
Zr277      Zr  0.12417244  0.23843879  0.60093196     2.26400
Zr278      Zr  0.17650696  0.26691036  0.64595126     2.06300
Zr279      Zr  0.13041025  0.33372966  0.59630204     2.10000
Zr280      Zr  0.22441198  0.33133561  0.60307139     1.78800
O281        O  0.07262585  0.33584920  0.59271471    -0.92500
O282        O  0.27733660  0.32232135  0.60999216    -0.40400
O283        O  0.16331437  0.30087920  0.58934414    -0.77000
O284        O  0.18617874  0.26837131  0.61377876    -0.95700
O285        O  0.11511687  0.23614003  0.63292449    -0.89000
O286        O  0.09111412  0.27109552  0.60705286    -0.91800
C287        C  0.27536353  0.41529442  0.62620897     1.01900
C288        C  0.15620893  0.41792815  0.61815461     1.14900
C289        C  0.21213635  0.33419351  0.67982170     1.05600
O290        O  0.23411390  0.26508126  0.65101628    -0.94000
O291        O  0.16674527  0.20548637  0.63776753    -0.89700
O292        O  0.13401280  0.18766433  0.61117016    -0.82900
C293        C  0.15064131  0.18237736  0.62464623     1.12300
O294        O  0.06361487  0.29714277  0.66297259    -0.96000
Zr295      Zr  0.08234889  0.26892964  0.63895093     1.88900
O296        O  0.06067021  0.18786616  0.60636064    -0.72600
O297        O  0.14282074  0.22481059  0.67107516    -0.51900
O298        O  0.06345626  0.23106681  0.66654241    -0.96500
O299        O  0.02937219  0.27633290  0.62976949    -0.53800
O300        O  0.03587972  0.20588245  0.62928167    -0.73100
C301        C  0.03425389  0.18229559  0.61739405     0.99200
O302        O  0.14031633  0.21029304  0.57580931    -0.61900
O303        O  0.15999934  0.37233543  0.56958881    -0.56700
O304        O  0.09357108  0.23862792  0.57268645    -0.93400
O305        O  0.09865242  0.29619596  0.56962858    -0.91800
O306        O  0.24392946  0.37129830  0.57623046    -0.92200
O307        O  0.24188174  0.30427927  0.57807307    -0.91000
C308        C  0.08790897  0.26262776  0.56420412     1.18100
H309        H  0.20634788  0.39003642  0.60494388     0.34000
H310        H  0.19861325  0.25443904  0.61071886     0.44900
H311        H  0.06708412  0.25941757  0.60098275     0.38400
H312        H  0.13996863  0.30032135  0.66566990     0.34900
H313        H  0.29872517  0.34236493  0.60314113     0.26700
H314        H  0.16224107  0.22210803  0.67775143     0.32600
H315        H  0.03564140  0.21682852  0.66619470     0.38500
H316        H  0.27174158  0.38502313  0.57665260     0.33000
H317        H  0.14251870  0.38098166  0.56569978     0.31800
H318        H  0.07586965  0.34939926  0.58113812     0.33500
H319        H  0.01769658  0.25912744  0.61934595     0.32500
H320        H  0.22016414  0.27859583  0.57663475     0.36500
H321        H  0.15065506  0.22989629  0.56626968     0.29200
H322        H  0.19542573  0.41421865  0.66999278     0.33500
H323        H  0.03652874  0.27955537  0.66509384     0.36300
H324        H  0.18223076  0.39523367  0.57428276     0.28900
H325        H  0.16241463  0.20879256  0.57999531     0.41800
H326        H  0.25425523  0.29175733  0.65128407     0.31800
H327        H  0.28333846  0.32987323  0.62287198     0.39500
H328        H  0.04098602  0.30181669  0.62442750     0.31300
H329        H  0.13612341  0.23961834  0.67930328     0.31400
H330        H  0.15660934  0.37806672  0.67415416     0.31600
Zr331      Zr  0.81743096  0.17697952  0.36476375     2.17500
O332        O  0.82801724  0.22379759  0.34162705    -0.50700
O333        O  0.75236257  0.15961550  0.37013335    -0.73900
O334        O  0.78985272  0.14792775  0.33571432    -0.80700
O335        O  0.86248876  0.25367091  0.40113736    -0.82500
O336        O  0.79386474  0.09490413  0.33265361    -0.78100
O337        O  0.83032710  0.23884428  0.37437418    -0.89700
O338        O  0.72970598  0.11665059  0.39300001    -0.75700
O339        O  0.78524811  0.11145985  0.37116388    -0.85200
O340        O  0.81107214  0.17138397  0.39695284    -0.84900
O341        O  0.85674350  0.15456403  0.35232375    -0.71600
O342        O  0.88033794  0.20956145  0.37653670    -0.83700
Zr343      Zr  0.88047972  0.11418014  0.40340783     2.26400
Zr344      Zr  0.82460340  0.08881235  0.35951487     2.06300
Zr345      Zr  0.87366932  0.20257938  0.40879552     2.10000
Zr346      Zr  0.77959097  0.10600088  0.40331393     1.78800
O347        O  0.93236222  0.26199303  0.41133384    -0.92500
O348        O  0.72690345  0.04351609  0.39702937    -0.40400
O349        O  0.84169865  0.13700138  0.41590649    -0.77000
O350        O  0.81748596  0.08148695  0.39179082    -0.95700
O351        O  0.88697558  0.12021793  0.37129973    -0.89000
O352        O  0.91259212  0.17970926  0.39702016    -0.91800
C353        C  0.72627652  0.13715325  0.38093406     1.01900
C354        C  0.84658039  0.26066417  0.38791947     1.14900
C355        C  0.78468058  0.11870084  0.32698812     1.05600
O356        O  0.76649826  0.02905219  0.35622150    -0.94000
O357        O  0.83637528  0.03798370  0.36706081    -0.89700
O358        O  0.87077646  0.05373607  0.39315211    -0.82900
C359        C  0.85368924  0.03156453  0.37982803     1.12300
O360        O  0.93397620  0.23383022  0.34196947    -0.96000
Zr361      Zr  0.91877930  0.18562311  0.36497047     1.88900
O362        O  0.94313880  0.12650325  0.39619376    -0.72600
O363        O  0.85534266  0.07953153  0.33333150    -0.51900
O364        O  0.93513863  0.16776401  0.33628920    -0.96500
O365        O  0.97446408  0.24483886  0.37321287    -0.53800
O366        O  0.96534334  0.16791966  0.37263867    -0.73100
C367        C  0.96808592  0.14631693  0.38433131     0.99200
O368        O  0.86661716  0.07078864  0.42870205    -0.61900
O369        O  0.84537624  0.21084468  0.43621853    -0.56700
O370        O  0.91307390  0.14563893  0.43117880    -0.93400
O371        O  0.90702934  0.19743772  0.43488439    -0.91800
O372        O  0.76266321  0.12723802  0.43077802    -0.92200
O373        O  0.76296353  0.06131909  0.42815389    -0.91000
C374        C  0.91857120  0.17502585  0.43988351     1.18100
H375        H  0.79696707  0.18265939  0.40153103     0.34000
H376        H  0.80551674  0.05519582  0.39495595     0.44900
H377        H  0.93705968  0.19229391  0.40266966     0.38400
H378        H  0.85897639  0.15826125  0.33933124     0.34900
H379        H  0.70523459  0.04267085  0.40337174     0.26700
H380        H  0.83513549  0.05733130  0.32701812     0.32600
H381        H  0.96291590  0.18021595  0.33637867     0.38500
H382        H  0.73486974  0.11442586  0.43057322     0.33000
H383        H  0.86267766  0.23709400  0.44001260     0.31800
H384        H  0.92963548  0.27363246  0.42257992     0.33500
H385        H  0.98573687  0.23902055  0.38370145     0.32500
H386        H  0.78366361  0.05560668  0.42857063     0.36500
H387        H  0.85690235  0.08023756  0.43845818     0.29200
H388        H  0.80269840  0.21744367  0.33730361     0.33500
H389        H  0.96009881  0.24220137  0.33814053     0.36300
H390        H  0.82252205  0.21088377  0.43202215     0.28900
H391        H  0.84429256  0.04699728  0.42487013     0.41800
H392        H  0.74685650  0.03585683  0.35412562     0.31800
H393        H  0.72144090  0.04399627  0.38397244     0.39500
H394        H  0.96449594  0.26036538  0.37835897     0.31300
H395        H  0.86134785  0.10090630  0.32513438     0.31400
H396        H  0.83976468  0.21820163  0.33124363     0.31600
Zr397      Zr  0.72992549  0.81787327  0.90557320     2.17500
O398        O  0.75922736  0.86086757  0.93099156    -0.50700
O399        O  0.78110212  0.80585127  0.89954878    -0.73900
O400        O  0.72933941  0.78452575  0.93290669    -0.80700
O401        O  0.76169864  0.89681204  0.87097731    -0.82500
O402        O  0.67276621  0.73050264  0.93484808    -0.78100
O403        O  0.77851054  0.88111647  0.89764822    -0.89700
O404        O  0.76344564  0.76454131  0.87602082    -0.75700
O405        O  0.69697312  0.75252145  0.89886250    -0.85200
O406        O  0.73291615  0.81330497  0.87342800    -0.84900
O407        O  0.66745293  0.79449342  0.91721182    -0.71600
O408        O  0.70014445  0.85047843  0.89326547    -0.83700
Zr409      Zr  0.60690170  0.75499426  0.86487296     2.26400
Zr410      Zr  0.63421560  0.72908849  0.90958807     2.06300
Zr411      Zr  0.70204930  0.84438920  0.86104825     2.10000
Zr412      Zr  0.70016789  0.74791388  0.86689169     1.78800
O413        O  0.69764126  0.90086485  0.85701840    -0.92500
O414        O  0.69824412  0.68977095  0.87553302    -0.40400
O415        O  0.66969731  0.77893673  0.85372833    -0.77000
O416        O  0.63670767  0.72244361  0.87738910    -0.95700
O417        O  0.60391124  0.76028228  0.89693125    -0.89000
O418        O  0.63926972  0.82047765  0.87163563    -0.91800
C419        C  0.78694525  0.78583969  0.88808221     1.01900
C420        C  0.78381618  0.90381204  0.88453896     1.14900
C421        C  0.70597737  0.75347886  0.94057657     1.05600
O422        O  0.62623327  0.66708762  0.91485689    -0.94000
O423        O  0.57138445  0.67921857  0.90146558    -0.89700
O424        O  0.55442169  0.69576595  0.87509986    -0.82900
C425        C  0.54821404  0.67351611  0.88851634     1.12300
O426        O  0.66508940  0.86896125  0.92917079    -0.96000
Zr427      Zr  0.63696717  0.82543106  0.90380757     1.88900
O428        O  0.55756137  0.77044605  0.86962850    -0.72600
O429        O  0.59698407  0.72668873  0.93588017    -0.51900
O430        O  0.59706948  0.80375339  0.93071076    -0.96500
O431        O  0.64411014  0.88676416  0.89703479    -0.53800
O432        O  0.57531328  0.81124830  0.89342574    -0.73100
C433        C  0.55221580  0.79099721  0.88100351     0.99200
O434        O  0.57841194  0.70794001  0.84081701    -0.61900
O435        O  0.74528575  0.85931511  0.83561950    -0.56700
O436        O  0.61055621  0.78285368  0.83524419    -0.93400
O437        O  0.66888637  0.83442426  0.83248419    -0.91800
O438        O  0.73538059  0.76637077  0.83850997    -0.92200
O439        O  0.66970929  0.69912694  0.84394421    -0.91000
C440        C  0.63626152  0.81072348  0.82633656     1.18100
H441        H  0.75854338  0.82526460  0.86915154     0.34000
H442        H  0.62265140  0.69616084  0.87412434     0.44900
H443        H  0.62771719  0.83291612  0.86553318     0.38400
H444        H  0.66830482  0.79763783  0.93023338     0.34900
H445        H  0.71644657  0.68806605  0.86733023     0.26700
H446        H  0.58191735  0.69965793  0.93893570     0.32600
H447        H  0.58158667  0.81598779  0.93004245     0.38500
H448        H  0.75037620  0.75358147  0.83867462     0.33000
H449        H  0.75229197  0.88525161  0.83208247     0.31800
H450        H  0.71687821  0.91572023  0.84774616     0.33500
H451        H  0.62093822  0.88546782  0.90178036     0.32500
H452        H  0.65435416  0.70689806  0.83679151     0.36500
H453        H  0.59701696  0.71688034  0.83081290     0.29200
H454        H  0.77903128  0.85591158  0.93550218     0.33500
H455        H  0.64698075  0.87723501  0.93244383     0.36300
H456        H  0.76848904  0.86168444  0.84093497     0.28900
H457        H  0.57873132  0.68546476  0.84541844     0.41800
H458        H  0.64074189  0.66385736  0.90498169     0.31800
H459        H  0.71025810  0.69488858  0.88765274     0.39500
H460        H  0.64179297  0.88736402  0.88367858     0.31300
H461        H  0.61514307  0.73782115  0.94599649     0.31400
H462        H  0.73997459  0.85160603  0.94071015     0.31600
Zr463      Zr  0.84963225  0.69391029  0.10205181     2.17500
O464        O  0.89461979  0.72638749  0.07767966    -0.50700
O465        O  0.83546770  0.74343169  0.10836421    -0.73900
O466        O  0.81784686  0.69340151  0.07406752    -0.80700
O467        O  0.92650100  0.72593314  0.13784237    -0.82500
O468        O  0.76519980  0.63596970  0.07111134    -0.78100
O469        O  0.91163556  0.74342727  0.11113485    -0.89700
O470        O  0.79257039  0.72332495  0.13128158    -0.75700
O471        O  0.78398137  0.65948108  0.10808632    -0.85200
O472        O  0.84339873  0.69478335  0.13420430    -0.84900
O473        O  0.82830838  0.63229946  0.08975667    -0.71600
O474        O  0.88287203  0.66478548  0.11435298    -0.83700
Zr475      Zr  0.78775895  0.56847584  0.14126801     2.26400
Zr476      Zr  0.76251231  0.59749802  0.09671711     2.06300
Zr477      Zr  0.87517817  0.66447536  0.14649878     2.10000
Zr478      Zr  0.77783421  0.66033383  0.14011661     1.78800
O479        O  0.93241769  0.66113382  0.14939977    -0.92500
O480        O  0.71740010  0.65378705  0.13196992    -0.40400
O481        O  0.80938687  0.63028342  0.15314328    -0.77000
O482        O  0.75438938  0.59759635  0.12894605    -0.95700
O483        O  0.79463472  0.56790735  0.10920421    -0.89000
O484        O  0.85346922  0.60261626  0.13519668    -0.91800
C485        C  0.81419352  0.74782444  0.11962763     1.01900
C486        C  0.93369924  0.74867760  0.12452856     1.14900
C487        C  0.78783168  0.66959514  0.06576062     1.05600
O488        O  0.70056809  0.59065398  0.09288394    -0.94000
O489        O  0.71387727  0.53342922  0.10369401    -0.89700
O490        O  0.72978321  0.51590903  0.13007876    -0.82900
C491        C  0.70819526  0.50979327  0.11640733     1.12300
O492        O  0.90772273  0.63644604  0.07989830    -0.96000
Zr493      Zr  0.86002945  0.60250993  0.10305459     1.88900
O494        O  0.80475356  0.52048236  0.13585948    -0.72600
O495        O  0.75794249  0.56117687  0.06967701    -0.51900
O496        O  0.84018664  0.56547761  0.07524395    -0.96500
O497        O  0.92062911  0.60812161  0.11012395    -0.53800
O498        O  0.84536618  0.53979202  0.11194214    -0.73100
C499        C  0.82530347  0.51592483  0.12416364     0.99200
O500        O  0.74180721  0.53736523  0.16560673    -0.61900
O501        O  0.88891396  0.70465527  0.17306245    -0.56700
O502        O  0.81479077  0.57102992  0.17096782    -0.93400
O503        O  0.86567144  0.62956237  0.17446075    -0.91800
O504        O  0.79694422  0.69476685  0.16868938    -0.92200
O505        O  0.72996303  0.63107930  0.16359972    -0.91000
C506        C  0.84222589  0.59646805  0.18018461     1.18100
H507        H  0.85453593  0.72011416  0.13882037     0.34000
H508        H  0.72801371  0.58269861  0.13193031     0.44900
H509        H  0.86615971  0.59123657  0.14122019     0.38400
H510        H  0.83216392  0.63394930  0.07677374     0.34900
H511        H  0.71797182  0.67635561  0.13707864     0.26700
H512        H  0.73498230  0.55736521  0.06341226     0.32600
H513        H  0.85491719  0.55242002  0.07488169     0.38500
H514        H  0.78730242  0.71250899  0.16808720     0.33000
H515        H  0.91636550  0.71624152  0.17488779     0.31800
H516        H  0.94560103  0.67726846  0.15997525     0.33500
H517        H  0.92089725  0.58755906  0.10323471     0.32500
H518        H  0.72049117  0.60379902  0.16239562     0.36500
H519        H  0.74772420  0.55718221  0.17478731     0.29200
H520        H  0.88947390  0.74625272  0.07347032     0.33500
H521        H  0.91271458  0.61764945  0.07409123     0.36300
H522        H  0.88531886  0.72558841  0.16899082     0.28900
H523        H  0.71729543  0.53221561  0.16065168     0.41800
H524        H  0.69039552  0.58752992  0.10535765     0.31800
H525        H  0.71870700  0.65766322  0.11865762     0.39500
H526        H  0.91888138  0.60046866  0.12299372     0.31300
H527        H  0.77884774  0.57868919  0.06172272     0.31400
H528        H  0.88660343  0.70817713  0.06752624     0.31600
Zr529      Zr  0.27137242  0.08639199  0.10294182     2.17500
O530        O  0.24095337  0.10048757  0.07818318    -0.50700
O531        O  0.22020907  0.02351805  0.10918052    -0.73900
O532        O  0.27086595  0.05389428  0.07518834    -0.80700
O533        O  0.24021369  0.13160044  0.13916537    -0.82500
O534        O  0.32773572  0.05744632  0.07215937    -0.78100
O535        O  0.22286950  0.10025750  0.11216075    -0.89700
O536        O  0.23896687  0.99922943  0.13196098    -0.75700
O537        O  0.30411892  0.05349712  0.10895658    -0.85200
O538        O  0.26987007  0.07872507  0.13507821    -0.84900
O539        O  0.33342078  0.12531964  0.09081653    -0.71600
O540        O  0.30156545  0.14869012  0.11539331    -0.83700
Zr541      Zr  0.39627462  0.14688196  0.14215532     2.26400
Zr542      Zr  0.36657302  0.09263450  0.09778524     2.06300
Zr543      Zr  0.30136311  0.14061841  0.14759044     2.10000
Zr544      Zr  0.30259852  0.04587928  0.14093067     1.78800
O545        O  0.30284761  0.20004941  0.15192147    -0.92500
O546        O  0.30639230  0.99090257  0.13173315    -0.40400
O547        O  0.33413528  0.10758443  0.15407531    -0.77000
O548        O  0.36581729  0.08414839  0.13000222    -0.95700
O549        O  0.39738962  0.15456136  0.11013216    -0.89000
O550        O  0.36346037  0.17974450  0.13624744    -0.91800
C551        C  0.21489052  0.99737224  0.12031800     1.01900
C552        C  0.21760464  0.11666748  0.12574161     1.14900
C553        C  0.29416571  0.04690879  0.06689445     1.05600
O554        O  0.37076893  0.03595683  0.09411932    -0.94000
O555        O  0.43026938  0.10662928  0.10470295    -0.89700
O556        O  0.44828335  0.14041526  0.13098275    -0.82900
C557        C  0.45402438  0.12439203  0.11741062     1.12300
O558        O  0.33457651  0.20265925  0.07964974    -0.96000
Zr559      Zr  0.36415425  0.18686401  0.10415746     1.88900
O560        O  0.44517002  0.21182537  0.13705718    -0.72600
O561        O  0.40386496  0.12321692  0.07084193    -0.51900
O562        O  0.40377410  0.20645470  0.07714350    -0.96500
O563        O  0.35615816  0.24009409  0.11209781    -0.53800
O564        O  0.42629936  0.23471656  0.11368202    -0.73100
C565        C  0.45001272  0.23765174  0.12575781     0.99200
O566        O  0.42609617  0.13017624  0.16625360    -0.61900
O567        O  0.26207685  0.11217674  0.17426192    -0.56700
O568        O  0.39533682  0.17301104  0.17157362    -0.93400
O569        O  0.33784032  0.16785225  0.17503892    -0.91800
O570        O  0.26711481  0.02830639  0.16925120    -0.92200
O571        O  0.33138830  0.02617959  0.16412807    -0.91000
C572        C  0.37084577  0.17686165  0.18065151     1.18100
H573        H  0.24444082  0.06504048  0.13961478     0.34000
H574        H  0.38014597  0.07213253  0.13309545     0.44900
H575        H  0.37530211  0.20377120  0.14233655     0.38400
H576        H  0.33204407  0.12762616  0.07782635     0.34900
H577        H  0.28603184  0.96974369  0.13856215     0.26700
H578        H  0.40701891  0.10348998  0.06474677     0.32600
H579        H  0.41718809  0.23427139  0.07739865     0.38500
H580        H  0.25386072  0.00049157  0.16942996     0.33000
H581        H  0.25247830  0.12924827  0.17746209     0.31800
H582        H  0.29010507  0.19728901  0.16371269     0.33500
H583        H  0.37827079  0.26225070  0.10677604     0.32500
H584        H  0.35466250  0.04948287  0.16756277     0.36500
H585        H  0.40663773  0.11818304  0.17579232     0.29200
H586        H  0.22129126  0.07579194  0.07351791     0.33500
H587        H  0.35308209  0.22864131  0.07594613     0.36300
H588        H  0.23977036  0.08912722  0.16975132     0.28900
H589        H  0.42864993  0.10911996  0.16136533     0.41800
H590        H  0.37264952  0.02826427  0.10663826     0.31800
H591        H  0.29775454  0.98628052  0.11895050     0.39500
H592        H  0.36025761  0.24343488  0.12537007     0.31300
H593        H  0.38691840  0.12715214  0.06274751     0.31400
H594        H  0.25997003  0.11112646  0.06837507     0.31600
Zr595      Zr  0.15042549  0.84419550  0.90503387     2.17500
O596        O  0.10486137  0.83041527  0.92929334    -0.50700
O597        O  0.16377551  0.90782083  0.89926769    -0.73900
O598        O  0.18172170  0.87463156  0.93325208    -0.80700
O599        O  0.07425491  0.80050110  0.86856211    -0.82500
O600        O  0.23515649  0.87121271  0.93602030    -0.78100
O601        O  0.08806494  0.83051105  0.89593128    -0.89700
O602        O  0.20708936  0.93255423  0.87658071    -0.75700
O603        O  0.21610651  0.87704354  0.89902702    -0.85200
O604        O  0.15663190  0.85273187  0.87298665    -0.84900
O605        O  0.17327938  0.80484065  0.91680992    -0.71600
O606        O  0.11844259  0.78234249  0.89208955    -0.83700
Zr607      Zr  0.21465383  0.78465994  0.86485169     2.26400
Zr608      Zr  0.23913157  0.83746717  0.90982240     2.06300
Zr609      Zr  0.12615671  0.79130346  0.85994240     2.10000
Zr610      Zr  0.22214387  0.88511738  0.86702883     1.78800
O611        O  0.06886564  0.73120499  0.85568812    -0.92500
O612        O  0.28222028  0.94016904  0.87448939    -0.40400
O613        O  0.19190184  0.82413899  0.85333059    -0.77000
O614        O  0.24680647  0.84669782  0.87767704    -0.95700
O615        O  0.20817512  0.77603010  0.89687741    -0.89000
O616        O  0.14900284  0.75186764  0.87090759    -0.91800
C617        C  0.18511233  0.93432728  0.88838390     1.01900
C618        C  0.06652959  0.81484203  0.88222682     1.14900
C619        C  0.21186571  0.88122814  0.94154629     1.05600
O620        O  0.29964878  0.89462681  0.91332543    -0.94000
O621        O  0.28926351  0.82469022  0.90203296    -0.89700
O622        O  0.27357203  0.79178505  0.87546633    -0.82900
C623        C  0.29536056  0.80756730  0.88903697     1.12300
O624        O  0.09481456  0.72766113  0.92630854    -0.96000
Zr625      Zr  0.14269584  0.74385598  0.90299085     1.88900
O626        O  0.19921696  0.71993257  0.86969189    -0.72600
O627        O  0.24623564  0.80587394  0.93626696    -0.51900
O628        O  0.16271241  0.72706842  0.93087149    -0.96500
O629        O  0.08281353  0.68837556  0.89549235    -0.53800
O630        O  0.15816577  0.69681034  0.89339032    -0.73100
C631        C  0.17871980  0.69407151  0.88108569     0.99200
O632        O  0.26158992  0.80268343  0.84076202    -0.61900
O633        O  0.11516202  0.82115338  0.83389852    -0.56700
O634        O  0.18746824  0.75935064  0.83530045    -0.93400
O635        O  0.13590629  0.76588573  0.83197164    -0.91800
O636        O  0.20184947  0.90050269  0.83888383    -0.92200
O637        O  0.27021223  0.90457456  0.84366810    -0.91000
C638        C  0.15959249  0.75658107  0.82620009     1.18100
H639        H  0.14510654  0.86676761  0.86867178     0.34000
H640        H  0.27317396  0.85888890  0.87457555     0.44900
H641        H  0.13675612  0.72797287  0.86469907     0.38400
H642        H  0.16946896  0.80209693  0.92978895     0.34900
H643        H  0.28211337  0.96118810  0.86797277     0.26700
H644        H  0.26888566  0.82550478  0.94255108     0.32600
H645        H  0.14981241  0.69927327  0.93074118     0.38500
H646        H  0.21878324  0.92789438  0.83737327     0.33000
H647        H  0.08812850  0.80500426  0.83108681     0.31800
H648        H  0.05989496  0.73281897  0.84342522     0.33500
H649        H  0.08378935  0.66719509  0.90134493     0.32500
H650        H  0.27177353  0.88176542  0.84108848     0.36500
H651        H  0.25329085  0.81344300  0.83099506     0.29200
H652        H  0.11054803  0.85516147  0.93418080     0.33500
H653        H  0.08973727  0.70326761  0.93139950     0.36300
H654        H  0.11733494  0.84468547  0.83865689     0.28900
H655        H  0.28461926  0.82471013  0.84551051     0.41800
H656        H  0.30899232  0.90238643  0.90077225     0.31800
H657        H  0.28008346  0.94507813  0.88747845     0.39500
H658        H  0.08403726  0.68429326  0.88232057     0.31300
H659        H  0.22512506  0.80110426  0.94441531     0.31400
H660        H  0.11206578  0.81874161  0.93908736     0.31600
Zr661      Zr  0.12461567  0.23871359  0.90619647     2.17500
O662        O  0.13917457  0.20945216  0.93133420    -0.50700
O663        O  0.06152304  0.18753255  0.90016336    -0.73900
O664        O  0.09227698  0.23880713  0.93387398    -0.80700
O665        O  0.17056079  0.20658759  0.87092233    -0.82500
O666        O  0.09475696  0.29528478  0.93613665    -0.78100
O667        O  0.13979495  0.19051046  0.89809765    -0.89700
O668        O  0.03588795  0.20678363  0.87824138    -0.75700
O669        O  0.09140804  0.27107144  0.89983298    -0.85200
O670        O  0.11614102  0.23567437  0.87410871    -0.84900
O671        O  0.16344840  0.30132706  0.91773021    -0.71600
O672        O  0.18666319  0.26869505  0.89342968    -0.83700
Zr673      Zr  0.18353350  0.36156109  0.86544588     2.26400
Zr674      Zr  0.13037981  0.33392927  0.91044477     2.06300
Zr675      Zr  0.17774716  0.26646449  0.86127255     2.10000
Zr676      Zr  0.08338677  0.26842144  0.86785240     1.78800
O677        O  0.23870056  0.27121129  0.85685084    -0.92500
O678        O  0.02942748  0.27523137  0.87553193    -0.40400
O679        O  0.14453153  0.29885321  0.85432561    -0.77000
O680        O  0.12127567  0.33187801  0.87821490    -0.95700
O681        O  0.19189361  0.36446086  0.89751293    -0.89000
O682        O  0.21671771  0.32919878  0.87187510    -0.91800
C683        C  0.03458956  0.18269916  0.88966969     1.01900
C684        C  0.15640205  0.18486591  0.88471860     1.14900
C685        C  0.08482703  0.26209765  0.94182689     1.05600
O686        O  0.07481576  0.34004945  0.91427487    -0.94000
O687        O  0.14432255  0.39720709  0.90265462    -0.89700
O688        O  0.17683133  0.41382987  0.87596589    -0.82900
C689        C  0.16147282  0.42026548  0.88961026     1.12300
O690        O  0.24028036  0.30295808  0.92882740    -0.96000
Zr691      Zr  0.22457601  0.33189524  0.90398634     1.88900
O692        O  0.24857508  0.41062530  0.86961387    -0.72600
O693        O  0.16047974  0.37127168  0.93746680    -0.51900
O694        O  0.24192317  0.37322890  0.93030342    -0.96500
O695        O  0.27996912  0.32650567  0.89765250    -0.53800
O696        O  0.27202493  0.39328886  0.89335000    -0.73100
C697        C  0.27467409  0.41615937  0.88086673     0.99200
O698        O  0.16579520  0.39087907  0.84147557    -0.61900
O699        O  0.14860071  0.22369801  0.83575983    -0.56700
O700        O  0.20773713  0.35832348  0.83572031    -0.93400
O701        O  0.20062754  0.29992920  0.83270684    -0.91800
O702        O  0.06427524  0.22914636  0.84078509    -0.92200
O703        O  0.06574499  0.29534531  0.84292168    -0.91000
C704        C  0.20954823  0.33261217  0.82664076     1.18100
H705        H  0.10224312  0.21002333  0.86988721     0.34000
H706        H  0.10901566  0.34590500  0.87498068     0.44900
H707        H  0.24063728  0.34073080  0.86568016     0.38400
H708        H  0.16606725  0.30050984  0.93072780     0.34900
H709        H  0.00858174  0.25601236  0.86809664     0.26700
H710        H  0.14116554  0.37587989  0.94298318     0.32600
H711        H  0.26974378  0.38762614  0.93019197     0.38500
H712        H  0.03647746  0.21637274  0.84081131     0.33000
H713        H  0.16678809  0.21561710  0.83234916     0.31800
H714        H  0.23345171  0.24926182  0.84923040     0.33500
H715        H  0.30138352  0.34987156  0.90253734     0.32500
H716        H  0.08982280  0.31659114  0.83856804     0.36500
H717        H  0.15627962  0.37261978  0.83133158     0.29200
H718        H  0.11458709  0.18913338  0.93577288     0.33500
H719        H  0.26427722  0.32306947  0.93390399     0.36300
H720        H  0.12701636  0.20095489  0.84100067     0.28900
H721        H  0.14297814  0.39060537  0.84602305     0.41800
H722        H  0.06330578  0.33530411  0.90205184     0.31800
H723        H  0.02289497  0.26579973  0.88814638     0.39500
H724        H  0.28324730  0.32903383  0.88430985     0.31300
H725        H  0.16270323  0.35387686  0.94599966     0.31400
H726        H  0.14878274  0.22840785  0.94118371     0.31600
Zr727      Zr  0.87967423  0.11436370  0.10329371     2.17500
O728        O  0.86690362  0.06970607  0.07873274    -0.50700
O729        O  0.94314817  0.12794400  0.10977324    -0.73900
O730        O  0.91158052  0.14693675  0.07546605    -0.80700
O731        O  0.83292038  0.03615647  0.13856460    -0.82500
O732        O  0.90677930  0.19958544  0.07269869    -0.78100
O733        O  0.86639085  0.05195825  0.11213503    -0.89700
O734        O  0.96621294  0.17045215  0.13284499    -0.75700
O735        O  0.91132952  0.17986763  0.10963428    -0.85200
O736        O  0.88663338  0.11989926  0.13547216    -0.84900
O737        O  0.83974911  0.13633167  0.09127403    -0.71600
O738        O  0.81727909  0.08126620  0.11562062    -0.83700
Zr739      Zr  0.81661707  0.17584120  0.14304124     2.26400
Zr740      Zr  0.87125168  0.20203978  0.09857028     2.06300
Zr741      Zr  0.82457422  0.08812372  0.14787435     2.10000
Zr742      Zr  0.91811995  0.18537211  0.14168377     1.78800
O743        O  0.76495305  0.03016608  0.15199314    -0.92500
O744        O  0.97219346  0.24556746  0.13335708    -0.40400
O745        O  0.85647350  0.15372435  0.15478774    -0.77000
O746        O  0.87916322  0.20933024  0.13080807    -0.95700
O747        O  0.80930418  0.16982123  0.11095178    -0.89000
O748        O  0.78472302  0.11027206  0.13669189    -0.91800
C749        C  0.96884704  0.14882185  0.12110957     1.01900
C750        C  0.84889254  0.02939881  0.12529050     1.14900
C751        C  0.91793720  0.17712167  0.06726141     1.05600
O752        O  0.92764812  0.26354194  0.09633624    -0.94000
O753        O  0.85538358  0.25027590  0.10578269    -0.89700
O754        O  0.82194096  0.23406453  0.13219573    -0.82900
C755        C  0.83741239  0.25583180  0.11855153     1.12300
O756        O  0.76164212  0.05910089  0.07994300    -0.96000
Zr757      Zr  0.77808959  0.10453954  0.10453457     1.88900
O758        O  0.75165721  0.15898855  0.13809089    -0.72600
O759        O  0.84200560  0.21023706  0.07151518    -0.51900
O760        O  0.76070364  0.12610498  0.07735054    -0.96500
O761        O  0.72511193  0.04261289  0.11173358    -0.53800
O762        O  0.72963075  0.11782812  0.11442592    -0.73100
C763        C  0.72614058  0.13799992  0.12669038     0.99200
O764        O  0.83268428  0.22219875  0.16719571    -0.61900
O765        O  0.85390690  0.07622720  0.17386889    -0.56700
O766        O  0.79115715  0.14810920  0.17252490    -0.93400
O767        O  0.79827986  0.09690304  0.17580910    -0.91800
O768        O  0.93486212  0.16744136  0.17016392    -0.92200
O769        O  0.93562065  0.23270337  0.16531610    -0.91000
C770        C  0.78855059  0.12026377  0.18159243     1.18100
H771        H  0.90073427  0.10856614  0.13994161     0.34000
H772        H  0.89068589  0.23560082  0.13399672     0.44900
H773        H  0.76063274  0.09753179  0.14272198     0.38400
H774        H  0.83759571  0.13287198  0.07826644     0.34900
H775        H  0.99343132  0.24678006  0.14026996     0.26700
H776        H  0.86180783  0.23384785  0.06596648     0.32600
H777        H  0.73292727  0.11350427  0.07771301     0.38500
H778        H  0.96265781  0.18029005  0.17000719     0.33000
H779        H  0.83706434  0.04937087  0.17681970     0.31800
H780        H  0.76781370  0.01957329  0.16356150     0.33500
H781        H  0.70287134  0.04268152  0.10661984     0.32500
H782        H  0.91332185  0.23571021  0.16675465     0.36500
H783        H  0.84401124  0.21448779  0.17694334     0.29200
H784        H  0.89183904  0.07571608  0.07396750     0.33500
H785        H  0.73626215  0.05296043  0.07582178     0.36300
H786        H  0.87694795  0.07739538  0.16903942     0.28900
H787        H  0.85416349  0.24571336  0.16247642     0.41800
H788        H  0.93627127  0.27067022  0.10902014     0.31800
H789        H  0.97753395  0.24246246  0.12055426     0.39500
H790        H  0.72174797  0.04257562  0.12504468     0.31300
H791        H  0.83909689  0.19023930  0.06304558     0.31400
H792        H  0.85542951  0.07715661  0.06894534     0.31600
C793        C  0.98079351  0.20626070  0.02078229     0.17600
C794        C  0.01679661  0.23812419  0.02078143    -0.11500
C795        C  0.03829825  0.24914395  0.00484876    -0.12300
C796        C  0.02392442  0.22834000  0.98883455     0.19200
C797        C  0.98806346  0.19631352  0.98887382    -0.14400
C798        C  0.96656631  0.18529863  0.00480164    -0.12600
C799        C  0.04570051  0.24007686  0.97232555     0.00200
C800        C  0.06364243  0.25004747  0.95842011    -0.32700
C801        C  0.95828622  0.19540565  0.03708344     0.01500
C802        C  0.93958210  0.18674965  0.05077207    -0.34300
H803        H  0.02812528  0.25455284  0.03304905     0.12600
H804        H  0.06598615  0.27395458  0.00498934     0.12400
H805        H  0.97665428  0.18000517  0.97657989     0.12300
H806        H  0.93879829  0.16060967  0.00462775     0.11300
C807        C  0.16874632  0.52271814  0.88755777     0.17600
C808        C  0.13848385  0.52537315  0.88054463    -0.11500
C809        C  0.14156406  0.56056768  0.87822865    -0.12300
C810        C  0.17495127  0.59328464  0.88287981     0.19200
C811        C  0.20522298  0.59064933  0.88991878    -0.14400
C812        C  0.20214315  0.55542929  0.89223295    -0.12600
C813        C  0.17764561  0.62939531  0.88096575     0.00200
C814        C  0.17881772  0.65926413  0.88028350    -0.32700
C815        C  0.16582826  0.48650621  0.88943488     0.01500
C816        C  0.16354789  0.45613299  0.89011654    -0.34300
H817        H  0.11258619  0.50027087  0.87682390     0.12600
H818        H  0.11792092  0.56226732  0.87286214     0.12400
H819        H  0.23110569  0.61576053  0.89364639     0.12300
H820        H  0.22576988  0.55370591  0.89760457     0.11300
C821        C  0.16806213  0.09211167  0.88720180     0.17600
C822        C  0.20380776  0.09613892  0.88518949    -0.11500
C823        C  0.20825671  0.06460774  0.88610615    -0.12300
C824        C  0.17697105  0.02896657  0.88904773     0.19200
C825        C  0.14127145  0.02495716  0.89116144    -0.14400
C826        C  0.13682250  0.05647433  0.89024157    -0.12600
C827        C  0.18122271  0.99635257  0.88940937     0.00200
C828        C  0.18367121  0.96837170  0.88921336    -0.32700
C829        C  0.16344166  0.12451057  0.88613313     0.01500
C830        C  0.15986640  0.15184828  0.88535581    -0.34300
H831        H  0.22815116  0.12357838  0.88284280     0.12600
H832        H  0.23596325  0.06796613  0.88440588     0.12400
H833        H  0.11689349  0.99747883  0.89339248     0.12300
H834        H  0.10906924  0.05305286  0.89182352     0.11300
C835        C  0.23776948  0.94115864  0.98869096     0.17600
C836        C  0.24654777  0.97876508  0.98819755    -0.11500
C837        C  0.25724848  0.00025927  0.00410098    -0.12300
C838        C  0.25920831  0.98423303  0.02056048     0.19200
C839        C  0.25006775  0.94651262  0.02108801    -0.14400
C840        C  0.23937220  0.92501677  0.00518113    -0.12600
C841        C  0.27117649  0.00663230  0.03682789     0.00200
C842        C  0.28158543  0.02527864  0.05048534    -0.32700
C843        C  0.22790492  0.91942310  0.97222474     0.01500
C844        C  0.22032616  0.90168393  0.95829702    -0.34300
H845        H  0.24541676  0.99152416  0.97551378     0.12600
H846        H  0.26425762  0.02939436  0.00354270     0.12400
H847        H  0.25148943  0.93383892  0.03374483     0.12300
H848        H  0.23266155  0.89596787  0.00570744     0.11300
C849        C  0.06172262  0.13732285  0.12234245     0.17600
C850        C  0.06758167  0.12112883  0.13784589    -0.11500
C851        C  0.09854711  0.11572129  0.13876526    -0.12300
C852        C  0.12375992  0.12647362  0.12417816     0.19200
C853        C  0.11770360  0.14233883  0.10861340    -0.14400
C854        C  0.08674380  0.14773654  0.10769253    -0.12600
C855        C  0.15618925  0.12188588  0.12524429     0.00200
C856        C  0.18394858  0.11900148  0.12575017    -0.32700
C857        C  0.02997941  0.14308378  0.12147152     0.01500
C858        C  0.00268675  0.14679029  0.12104677    -0.34300
H859        H  0.04832350  0.11284064  0.14922788     0.12600
H860        H  0.10294481  0.10339823  0.15085735     0.12400
H861        H  0.13701728  0.15072313  0.09725080     0.12300
H862        H  0.08240792  0.16014324  0.09561604     0.11300
C863        C  0.55555033  0.12968438  0.11998914     0.17600
C864        C  0.58871251  0.16244391  0.11511322    -0.11500
C865        C  0.62351497  0.16464531  0.11751095    -0.12300
C866        C  0.62531646  0.13414416  0.12485177     0.19200
C867        C  0.59218122  0.10144517  0.12981375    -0.14400
C868        C  0.55737316  0.09924554  0.12741837    -0.12600
C869        C  0.66104262  0.13601474  0.12676744     0.00200
C870        C  0.69091166  0.13720454  0.12742576    -0.32700
C871        C  0.51974658  0.12757515  0.11773184     0.01500
C872        C  0.48970080  0.12600392  0.11677098    -0.34300
H873        H  0.58765458  0.18622022  0.10945230     0.12600
H874        H  0.64896381  0.19001783  0.11357454     0.12400
H875        H  0.59325118  0.07765138  0.13544684     0.12300
H876        H  0.53192634  0.07385078  0.13133148     0.11300
C877        C  0.11087198  0.90379521  0.12088714     0.17600
C878        C  0.10229536  0.87584954  0.13394446    -0.11500
C879        C  0.06598108  0.84479618  0.13498435    -0.12300
C880        C  0.03807663  0.84160331  0.12298429     0.19200
C881        C  0.04669266  0.86947093  0.10988090    -0.14400
C882        C  0.08300888  0.90051691  0.10883706    -0.12600
C883        C  0.00075768  0.80957054  0.12394906     0.00200
C884        C  0.96976984  0.78225887  0.12440670    -0.32700
C885        C  0.14800557  0.93617028  0.12014031     0.01500
C886        C  0.17883525  0.96374633  0.11998988    -0.34300
H887        H  0.12361636  0.87815092  0.14334726     0.12600
H888        H  0.05966342  0.82335172  0.14513343     0.12400
H889        H  0.02535141  0.86720843  0.10050293     0.12300
H890        H  0.08930949  0.92199039  0.09870733     0.11300
C891        C  0.61296540  0.40758636  0.11834728     0.17600
C892        C  0.61006214  0.37528575  0.11037105    -0.11500
C893        C  0.57739872  0.34048934  0.11275651    -0.12300
C894        C  0.54761398  0.33788162  0.12317216     0.19200
C895        C  0.55056635  0.37019327  0.13114166    -0.14400
C896        C  0.58319151  0.40495452  0.12875461    -0.12600
C897        C  0.51371929  0.30224820  0.12533259     0.00200
C898        C  0.48486623  0.27255740  0.12630675    -0.32700
C899        C  0.64666323  0.44336343  0.11623960     0.01500
C900        C  0.67477130  0.47370859  0.11556279    -0.34300
H901        H  0.63298707  0.37699799  0.10235309     0.12600
H902        H  0.57533406  0.31568384  0.10647339     0.12400
H903        H  0.52765848  0.36852105  0.13915776     0.12300
H904        H  0.58522846  0.42975384  0.13503294     0.11300
C905        C  0.83734866  0.92514938  0.12370645     0.17600
C906        C  0.85211247  0.91486200  0.10908328    -0.11500
C907        C  0.84573809  0.87819265  0.10781705    -0.12300
C908        C  0.82454168  0.85165273  0.12116348     0.19200
C909        C  0.80984228  0.86197186  0.13582002    -0.14400
C910        C  0.81622947  0.89866412  0.13708950    -0.10200
C911        C  0.81882902  0.81419670  0.12008374     0.00200
C912        C  0.81562821  0.78341491  0.11956936    -0.32700
C913        C  0.84294007  0.96252851  0.12465632     0.01500
C914        C  0.84644479  0.99341028  0.12504181    -0.34300
H915        H  0.86839238  0.93512109  0.09864322     0.12600
H916        H  0.85737213  0.87056118  0.09647176     0.12400
H917        H  0.79354937  0.84171167  0.14625578     0.12300
H918        H  0.80460615  0.90632518  0.14843096     0.11300
C919        C  0.83118565  0.35181944  0.11885819     0.17600
C920        C  0.79718155  0.35030196  0.12304535    -0.11500
C921        C  0.79579491  0.38349765  0.12471190    -0.12300
C922        C  0.82840908  0.41838035  0.12222385     0.19200
C923        C  0.86237307  0.41990459  0.11792054    -0.14400
C924        C  0.86375750  0.38670482  0.11624754    -0.12600
C925        C  0.82691734  0.45253304  0.12382844     0.00200
C926        C  0.82585535  0.48130163  0.12454638    -0.32700
C927        C  0.83291937  0.31771345  0.11783229     0.01500
C928        C  0.83477018  0.28933199  0.11771181    -0.34300
H929        H  0.77183744  0.32350778  0.12513766     0.12600
H930        H  0.76935936  0.38197620  0.12797663     0.12400
H931        H  0.88774808  0.44671168  0.11590210     0.12300
H932        H  0.89022485  0.38823734  0.11304764     0.11300
C933        C  0.44628049  0.57753621  0.88620646     0.17600
C934        C  0.41343810  0.57935196  0.88876327    -0.11500
C935        C  0.37823801  0.54707504  0.88668078    -0.12300
C936        C  0.37574333  0.51287154  0.88197368     0.19200
C937        C  0.40857433  0.51106173  0.87937404    -0.14400
C938        C  0.44377452  0.54333684  0.88146041    -0.12600
C939        C  0.33958959  0.47943598  0.88028175     0.00200
C940        C  0.30962565  0.45083022  0.87975120    -0.32700
C941        C  0.48246888  0.61093225  0.88804201     0.01500
C942        C  0.51260311  0.63934330  0.88882954    -0.34300
H943        H  0.41505484  0.60568810  0.89234762     0.12600
H944        H  0.35302783  0.54875906  0.88878301     0.12400
H945        H  0.40694881  0.48471879  0.87579113     0.12300
H946        H  0.46897798  0.54163996  0.87936409     0.11300
C947        C  0.93970471  0.08015142  0.88911498     0.17600
C948        C  0.93677537  0.05142566  0.90042020    -0.11500
C949        C  0.90534479  0.01544256  0.89926864    -0.12300
C950        C  0.87674421  0.00804436  0.88679570     0.19200
C951        C  0.87966849  0.03677988  0.87546410    -0.14400
C952        C  0.91113305  0.07279884  0.87661598    -0.12600
C953        C  0.84430807  0.97106062  0.88577797     0.00200
C954        C  0.81693551  0.94016415  0.88516715    -0.32700
C955        C  0.97246120  0.11686224  0.89005920     0.01500
C956        C  0.00058252  0.14717982  0.89036273    -0.34300
H957        H  0.95881379  0.05681994  0.91006803     0.12600
H958        H  0.90333740  0.99341762  0.90808841     0.12400
H959        H  0.85768797  0.03134138  0.86577240     0.12300
H960        H  0.91324165  0.09481910  0.86775645     0.11300
C961        C  0.39066285  0.80081614  0.88667168     0.17600
C962        C  0.39360686  0.78013854  0.87225836    -0.11500
C963        C  0.42609450  0.77759346  0.87022395    -0.12300
C964        C  0.45573592  0.79573054  0.88259300     0.19200
C965        C  0.45274129  0.81636018  0.89701654    -0.14400
C966        C  0.42026074  0.81889019  0.89905445    -0.12600
C967        C  0.48910650  0.79297662  0.88067248     0.00200
C968        C  0.51758915  0.79140555  0.88004276    -0.32700
C969        C  0.35746897  0.80382123  0.88858938     0.01500
C970        C  0.32936880  0.80600565  0.88946029    -0.34300
H971        H  0.37085665  0.76607773  0.86259727     0.12600
H972        H  0.42809760  0.76152469  0.85904767     0.12400
H973        H  0.47548428  0.83044688  0.90667754     0.12300
H974        H  0.41825530  0.83495970  0.91023173     0.11300
C975        C  0.96298144  0.80520819  0.88402932     0.17600
C976        C  0.93145649  0.77076463  0.87941851    -0.11500
C977        C  0.89544602  0.76619787  0.88067395    -0.12300
C978        C  0.89081099  0.79603875  0.88657960     0.19200
C979        C  0.92235625  0.83051568  0.89114570    -0.14400
C980        C  0.95836824  0.83507768  0.88989715    -0.12600
C981        C  0.85378231  0.79144813  0.88778082     0.00200
C982        C  0.82301828  0.78830978  0.88835137    -0.32700
C983        C  0.99995004  0.80968709  0.88294692     0.01500
C984        C  0.03060405  0.81261590  0.88236598    -0.34300
H985        H  0.93471690  0.74747050  0.87489055     0.12600
H986        H  0.87126775  0.73945712  0.87705722     0.12400
H987        H  0.91910381  0.85381250  0.89567386     0.12300
H988        H  0.98255413  0.86180883  0.89352245     0.11300
C989        C  0.73883869  0.72439978  0.98703077     0.17600
C990        C  0.77484282  0.72892161  0.98858970    -0.11500
C991        C  0.78529827  0.71806693  0.00454190    -0.12300
C992        C  0.75977787  0.70266613  0.01897089     0.19200
C993        C  0.72381199  0.69824020  0.01740779    -0.14400
C994        C  0.71336985  0.70910219  0.00146961    -0.12600
C995        C  0.77037584  0.69130744  0.03536166     0.00200
C996        C  0.77869435  0.68154729  0.04919091    -0.32700
C997        C  0.72782272  0.73509537  0.97059139     0.01500
C998        C  0.71799678  0.74362743  0.95686964    -0.34300
H999        H  0.79472845  0.74071102  0.97748497     0.12600
H1000       H  0.81317561  0.72160146  0.00561498     0.12400
H1001       H  0.70386412  0.68635304  0.02848157     0.12300
H1002       H  0.68545703  0.70548324  0.00038145     0.11300
C1003       C  0.76448096  0.11050417  0.23543089     0.17600
C1004       C  0.73793074  0.11657524  0.24448829    -0.11500
C1005       C  0.73640359  0.11577733  0.26352905    -0.12300
C1006       C  0.76141344  0.10886850  0.27347704     0.19200
C1007       C  0.78756601  0.10243250  0.26436401    -0.14400
C1008       C  0.78910821  0.10326181  0.24543531    -0.12600
C1009       C  0.76245836  0.11044617  0.29299718     0.00200
C1010       C  0.76954278  0.11332161  0.30899539    -0.32700
C1011       C  0.76794476  0.11295135  0.21595107     0.01500
C1012       C  0.77516922  0.11571829  0.19994984    -0.34300
H1013       H  0.71887892  0.12240889  0.23687623     0.12600
H1014       H  0.71625921  0.12109620  0.27045381     0.12400
H1015       H  0.80723594  0.09738977  0.27192146     0.12300
H1016       H  0.80988779  0.09876281  0.23859745     0.11300
C1017       C  0.22872899  0.34692363  0.77220467     0.17600
C1018       C  0.25602053  0.34238350  0.76293970    -0.11500
C1019       C  0.25718118  0.34322138  0.74390694    -0.12300
C1020       C  0.23104024  0.34859957  0.73407549     0.19200
C1021       C  0.20404525  0.35352150  0.74337056    -0.14400
C1022       C  0.20286980  0.35265756  0.76235413    -0.12600
C1023       C  0.22999930  0.34671006  0.71450965     0.00200
C1024       C  0.22456373  0.34257945  0.69834507    -0.32700
C1025       C  0.22604116  0.34421947  0.79173609     0.01500
C1026       C  0.22064361  0.34020855  0.80791001    -0.34300
H1027       H  0.27600006  0.33767540  0.77040310     0.12600
H1028       H  0.27798093  0.33905602  0.73687938     0.12400
H1029       H  0.18347820  0.35736644  0.73592844     0.12300
H1030       H  0.18146755  0.35593253  0.76934051     0.11300
C1031       C  0.98081210  0.20328006  0.48637974     0.17600
C1032       C  0.01871507  0.21309824  0.48555910    -0.11500
C1033       C  0.04088843  0.22496270  0.50124417    -0.12300
C1034       C  0.02527709  0.22707821  0.51782357     0.19200
C1035       C  0.98724457  0.21680885  0.51868690    -0.14400
C1036       C  0.96507355  0.20495498  0.50300021    -0.12600
C1037       C  0.04829224  0.24000642  0.53390150     0.00200
C1038       C  0.06704044  0.25064226  0.54753545    -0.32700
C1039       C  0.95832195  0.19229458  0.47012403     0.01500
C1040       C  0.93983411  0.18392010  0.45640843    -0.34300
H1041       H  0.03117816  0.21187594  0.47278654     0.12600
H1042       H  0.07021666  0.23271690  0.50042397     0.12400
H1043       H  0.97482330  0.21821303  0.53143939     0.12300
H1044       H  0.93579484  0.19739868  0.50379753     0.11300
C1045       C  0.15155575  0.73075653  0.77251305     0.17600
C1046       C  0.11824108  0.72058652  0.76304920    -0.11500
C1047       C  0.11804704  0.72033979  0.74404044    -0.12300
C1048       C  0.15116729  0.73024745  0.73441922     0.19200
C1049       C  0.18416930  0.73920220  0.74389984    -0.14400
C1050       C  0.18436483  0.73945708  0.76290124    -0.12600
C1051       C  0.15223645  0.73470201  0.71497912     0.00200
C1052       C  0.15461183  0.74223078  0.69901733    -0.32700
C1053       C  0.15296487  0.73567854  0.79191119     0.01500
C1054       C  0.15531103  0.74335876  0.80784079    -0.34300
H1055       H  0.09278355  0.71409299  0.77034129     0.12600
H1056       H  0.09244009  0.71366388  0.73686560     0.12400
H1057       H  0.21001634  0.74720624  0.73661501     0.12300
H1058       H  0.21035468  0.74765033  0.77007374     0.11300
C1059       C  0.16023385  0.51888117  0.62130545     0.17600
C1060       C  0.17012108  0.53722239  0.63815727    -0.11500
C1061       C  0.17424199  0.57296898  0.64004947    -0.12300
C1062       C  0.16852969  0.59057554  0.62509692     0.19200
C1063       C  0.15837031  0.57211233  0.60827150    -0.14400
C1064       C  0.15423883  0.53635683  0.60638040    -0.12600
C1065       C  0.17318069  0.62757653  0.62693095     0.00200
C1066       C  0.17629512  0.65834817  0.62752697    -0.32700
C1067       C  0.15718904  0.48260024  0.61928712     0.01500
C1068       C  0.15599034  0.45273682  0.61820677    -0.34300
H1069       H  0.17488963  0.52400621  0.64978840     0.12600
H1070       H  0.18205050  0.58693062  0.65311913     0.12400
H1071       H  0.15383099  0.58542434  0.59661060     0.12300
H1072       H  0.14664524  0.52248045  0.59328468     0.11300
C1073       C  0.17336113  0.02771558  0.62251371     0.17600
C1074       C  0.14355960  0.02565782  0.63269493    -0.11500
C1075       C  0.13792917  0.05648677  0.63343430    -0.12300
C1076       C  0.16210522  0.08951104  0.62400720     0.19200
C1077       C  0.19209593  0.09167579  0.61394464    -0.14400
C1078       C  0.19772111  0.06084095  0.61320161    -0.12600
C1079       C  0.15619467  0.12116689  0.62459084     0.00200
C1080       C  0.15250337  0.14846629  0.62478647    -0.32700
C1081       C  0.17846194  0.99560590  0.62141055     0.01500
C1082       C  0.18167436  0.96805219  0.62071883    -0.34300
H1083       H  0.12456990  0.00017159  0.63995456     0.12600
H1084       H  0.11469307  0.05452804  0.64127351     0.12400
H1085       H  0.21099549  0.11710833  0.60662419     0.12300
H1086       H  0.22085858  0.06273806  0.60529767     0.11300
C1087       C  0.39045086  0.20315472  0.23410338     0.17600
C1088       C  0.38233146  0.22830593  0.24311865    -0.11500
C1089       C  0.38150486  0.22881798  0.26213387    -0.12300
C1090       C  0.38881998  0.20418527  0.27214543     0.19200
C1091       C  0.39813908  0.17995900  0.26310476    -0.14400
C1092       C  0.39896802  0.17945251  0.24414591    -0.12600
C1093       C  0.38374490  0.20109992  0.29153576     0.00200
C1094       C  0.37737171  0.19346155  0.30742613    -0.32700
C1095       C  0.38659466  0.19885822  0.21470111     0.01500
C1096       C  0.38056266  0.19094730  0.19882846    -0.34300
H1097       H  0.37543710  0.24656034  0.23547240     0.12600
H1098       H  0.37402346  0.24748911  0.26898398     0.12400
H1099       H  0.40356948  0.16059999  0.27070379     0.12300
H1100       H  0.40499159  0.15968949  0.23732149     0.11300
C1101       C  0.26598170  0.99066193  0.48764316     0.17600
C1102       C  0.25830511  0.95338242  0.48713930    -0.11500
C1103       C  0.24674350  0.93136767  0.50289815    -0.12300
C1104       C  0.24282041  0.94649904  0.51927144     0.19200
C1105       C  0.25030375  0.98372365  0.51975048    -0.14400
C1106       C  0.26185374  0.00573934  0.50398545    -0.12600
C1107       C  0.23187698  0.92412295  0.53562574     0.00200
C1108       C  0.22349649  0.90579748  0.54943494    -0.32700
C1109       C  0.27786099  0.01325159  0.47137635     0.01500
C1110       C  0.28742359  0.03128084  0.45748455    -0.34300
H1111       H  0.26132296  0.94137266  0.47458409     0.12600
H1112       H  0.24106238  0.90265213  0.50233813     0.12400
H1113       H  0.24739538  0.99576864  0.53231640     0.12300
H1114       H  0.26762844  0.03448627  0.50454667     0.11300
C1115       C  0.05995441  0.13344970  0.38213121     0.17600
C1116       C  0.09369975  0.16066491  0.37421701    -0.11500
C1117       C  0.12461969  0.15519889  0.37370040    -0.12300
C1118       C  0.12185696  0.12249982  0.38107698     0.19200
C1119       C  0.08795916  0.09503917  0.38875832    -0.14400
C1120       C  0.05703184  0.10050015  0.38926968    -0.12600
C1121       C  0.15413260  0.11770252  0.38115605     0.00200
C1122       C  0.18207886  0.11520701  0.38131735    -0.32700
C1123       C  0.02839363  0.13937472  0.38307525     0.01500
C1124       C  0.00134408  0.14337980  0.38384005    -0.34300
H1125       H  0.09618694  0.18617441  0.36860328     0.12600
H1126       H  0.15074308  0.17658071  0.36772445     0.12400
H1127       H  0.08556550  0.06965684  0.39448917     0.12300
H1128       H  0.03098951  0.07923515  0.39535758     0.11300
C1129       C  0.62293814  0.12788095  0.38019864     0.17600
C1130       C  0.59398376  0.09776451  0.38970992    -0.11500
C1131       C  0.55833084  0.09413029  0.39070023    -0.12300
C1132       C  0.55152998  0.12062268  0.38218996     0.19200
C1133       C  0.58050322  0.15074610  0.37269194    -0.14400
C1134       C  0.61614591  0.15437898  0.37170213    -0.12600
C1135       C  0.51502163  0.11724573  0.38330733     0.00200
C1136       C  0.48507677  0.11590243  0.38402151    -0.32700
C1137       C  0.65971924  0.13187589  0.37946031     0.01500
C1138       C  0.69036951  0.13477418  0.37960193    -0.34300
H1139       H  0.59900920  0.07720675  0.39639295     0.12600
H1140       H  0.53615898  0.07079381  0.39811882     0.12400
H1141       H  0.57555833  0.17144377  0.36610456     0.12300
H1142       H  0.63838358  0.17784861  0.36438081     0.11300
C1143       C  0.84999160  0.58268043  0.27241449     0.17600
C1144       C  0.82973522  0.59674200  0.26328432    -0.11500
C1145       C  0.82862457  0.59657175  0.24432979    -0.12300
C1146       C  0.84772763  0.58229286  0.23434698     0.19200
C1147       C  0.86765059  0.56776279  0.24343666    -0.14400
C1148       C  0.86878045  0.56794931  0.26246835    -0.12600
C1149       C  0.84750785  0.58385254  0.21482070     0.00200
C1150       C  0.84596967  0.58802537  0.19869892    -0.32700
C1151       C  0.85188090  0.58453997  0.29194475     0.01500
C1152       C  0.85114886  0.58889609  0.30811037    -0.34300
H1153       H  0.81513043  0.60822904  0.27082740     0.12600
H1154       H  0.81320398  0.60795413  0.23745190     0.12400
H1155       H  0.88257680  0.55671637  0.23583811     0.12300
H1156       H  0.88455030  0.55702703  0.26938964     0.11300
C1157       C  0.83235125  0.85463431  0.38235680     0.17600
C1158       C  0.86817510  0.88477704  0.37828872    -0.11500
C1159       C  0.87424873  0.92144941  0.37753697    -0.12300
C1160       C  0.84449969  0.92812146  0.38084659     0.19200
C1161       C  0.80876892  0.89799857  0.38501615    -0.14400
C1162       C  0.80270094  0.86137152  0.38576248    -0.12600
C1163       C  0.85026182  0.96566919  0.37993271     0.00200
C1164       C  0.85292706  0.99625793  0.37952371    -0.32700
C1165       C  0.82607317  0.81687986  0.38308111     0.01500
C1166       C  0.82165956  0.78558910  0.38374081    -0.34300
H1167       H  0.89134440  0.87991609  0.37567406     0.12600
H1168       H  0.90202027  0.94450511  0.37434004     0.12400
H1169       H  0.78558109  0.90282634  0.38764007     0.12300
H1170       H  0.77491829  0.83833819  0.38896197     0.11300
C1171       C  0.83749198  0.42279733  0.38282417     0.17600
C1172       C  0.80544811  0.38823084  0.38669906    -0.11500
C1173       C  0.80825914  0.35586595  0.38846984    -0.12300
C1174       C  0.84313659  0.35793812  0.38640298     0.19200
C1175       C  0.87521121  0.39251665  0.38255571    -0.14400
C1176       C  0.87239619  0.42490030  0.38077809    -0.12600
C1177       C  0.84571351  0.32439176  0.38775254     0.00200
C1178       C  0.84676072  0.29562620  0.38823750    -0.32700
C1179       C  0.83466988  0.45619945  0.38143248     0.01500
C1180       C  0.83235843  0.48428341  0.38109537    -0.34300
H1181       H  0.77835581  0.38632669  0.38838009     0.12600
H1182       H  0.78326442  0.32924636  0.39139125     0.12400
H1183       H  0.90229580  0.39440473  0.38087967     0.12300
H1184       H  0.89737695  0.45152597  0.37785153     0.11300
C1185       C  0.10718922  0.90872983  0.38568251     0.17600
C1186       C  0.08867500  0.88920369  0.40148108    -0.11500
C1187       C  0.05244726  0.85796568  0.40040317    -0.12300
C1188       C  0.03452265  0.84613541  0.38352598     0.19200
C1189       C  0.05279237  0.86600423  0.36776552    -0.14400
C1190       C  0.08901086  0.89724149  0.36884356    -0.12600
C1191       C  0.99788136  0.81306138  0.38234953     0.00200
C1192       C  0.96769648  0.78466404  0.38169515    -0.32700
C1193       C  0.14497710  0.94016499  0.38667017     0.01500
C1194       C  0.17652781  0.96671924  0.38705863    -0.34300
H1195       H  0.10237228  0.89788060  0.41458124     0.12600
H1196       H  0.03859055  0.84282360  0.41268388     0.12400
H1197       H  0.03921641  0.85712645  0.35464684     0.12300
H1198       H  0.10297707  0.91218222  0.35654072     0.11300
C1199       C  0.61299125  0.40687911  0.38525786     0.17600
C1200       C  0.57718207  0.40253263  0.38739176    -0.11500
C1201       C  0.54523436  0.36730376  0.38493069    -0.12300
C1202       C  0.54892455  0.33625187  0.38029456     0.19200
C1203       C  0.58474648  0.34050380  0.37823279    -0.14400
C1204       C  0.61675280  0.37579797  0.38069704    -0.12600
C1205       C  0.51581302  0.29999970  0.37819803     0.00200
C1206       C  0.48693275  0.27029567  0.37761339    -0.32700
C1207       C  0.64574064  0.44345914  0.38717685     0.01500
C1208       C  0.67324311  0.47425358  0.38796992    -0.34300
H1209       H  0.57396957  0.42638982  0.39086524     0.12600
H1210       H  0.51766225  0.36426282  0.38665370     0.12400
H1211       H  0.58790853  0.31662279  0.37474529     0.12300
H1212       H  0.64434553  0.37889357  0.37896660     0.11300
C1213       C  0.62450894  0.81809286  0.77207957     0.17600
C1214       C  0.61299646  0.84053702  0.76293109    -0.11500
C1215       C  0.61438699  0.84245812  0.74391866    -0.12300
C1216       C  0.62728943  0.82194163  0.73407012     0.19200
C1217       C  0.63842136  0.79928381  0.74324617    -0.14400
C1218       C  0.63701025  0.79734881  0.76217592    -0.12600
C1219       C  0.62963783  0.82395775  0.71457872     0.00200
C1220       C  0.63350666  0.82269058  0.69842080    -0.32700
C1221       C  0.62513489  0.81710269  0.79160544     0.01500
C1222       C  0.62865627  0.81489987  0.80773722    -0.34300
H1223       H  0.60337311  0.85677416  0.77046928     0.12600
H1224       H  0.60570930  0.86005552  0.73693666     0.12400
H1225       H  0.64844832  0.78330891  0.73576403     0.12300
H1226       H  0.64607519  0.77999878  0.76910753     0.11300
C1227       C  0.37741710  0.51118586  0.62732558     0.17600
C1228       C  0.40956949  0.50805484  0.62493758    -0.11500
C1229       C  0.44498022  0.54035936  0.62370828    -0.12300
C1230       C  0.44841119  0.57595697  0.62485199     0.19200
C1231       C  0.41626354  0.57911743  0.62724160    -0.14400
C1232       C  0.38082981  0.54679325  0.62846581    -0.12600
C1233       C  0.48487621  0.60919324  0.62364047     0.00200
C1234       C  0.51518082  0.63736860  0.62275604    -0.32700
C1235       C  0.34094051  0.47785519  0.62807580     0.01500
C1236       C  0.31072139  0.44948150  0.62782584    -0.34300
H1237       H  0.40724002  0.48066887  0.62394991     0.12600
H1238       H  0.46963591  0.53759012  0.62184972     0.12400
H1239       H  0.41859290  0.60651554  0.62813332     0.12300
H1240       H  0.35614536  0.54955241  0.63022229     0.11300
C1241       C  0.94105544  0.07822184  0.61641285     0.17600
C1242       C  0.90667461  0.07140201  0.62365421    -0.11500
C1243       C  0.87618717  0.03472496  0.62436579    -0.12300
C1244       C  0.87999029  0.00473364  0.61788264     0.19200
C1245       C  0.91423580  0.01161587  0.61043931    -0.14400
C1246       C  0.94471948  0.04829500  0.60972148    -0.12600
C1247       C  0.84883088  0.96695961  0.61909324     0.00200
C1248       C  0.82176967  0.93592406  0.62028089    -0.32700
C1249       C  0.97291231  0.11567806  0.61631122     0.01500
C1250       C  0.00045446  0.14649315  0.61659545    -0.34300
H1251       H  0.90355727  0.09433095  0.62889288     0.12600
H1252       H  0.84978893  0.02970484  0.63011201     0.12400
H1253       H  0.91745749  0.98864841  0.60535400     0.12300
H1254       H  0.97121637  0.05328055  0.60412213     0.11300
C1255       C  0.45828290  0.79833683  0.62526670     0.17600
C1256       C  0.43385364  0.79037144  0.63999724    -0.11500
C1257       C  0.40203814  0.79415488  0.63816695    -0.12300
C1258       C  0.39451970  0.80589209  0.62160441     0.19200
C1259       C  0.41871438  0.81341705  0.60680803    -0.14400
C1260       C  0.45052185  0.80962468  0.60863686    -0.12600
C1261       C  0.36190327  0.81002302  0.61986061     0.00200
C1262       C  0.33385314  0.81236904  0.61910724    -0.32700
C1263       C  0.49174264  0.79576974  0.62721248     0.01500
C1264       C  0.52047078  0.79466729  0.62779188    -0.34300
H1265       H  0.43954536  0.78154816  0.65289852     0.12600
H1266       H  0.38341453  0.78811315  0.64967304     0.12400
H1267       H  0.41309724  0.82235868  0.59392181     0.12300
H1268       H  0.46920944  0.81577363  0.59714646     0.11300
C1269       C  0.89235792  0.79779357  0.62148827     0.17600
C1270       C  0.90783644  0.78997339  0.60629114    -0.11500
C1271       C  0.94408158  0.79499618  0.60715461    -0.12300
C1272       C  0.96503658  0.80791118  0.62322124     0.19200
C1273       C  0.94963537  0.81596686  0.63837437    -0.14400
C1274       C  0.91339846  0.81094863  0.63751014    -0.12600
C1275       C  0.00209718  0.81245245  0.62424167     0.00200
C1276       C  0.03284250  0.81552915  0.62497512    -0.32700
C1277       C  0.85490019  0.79221160  0.62066111     0.01500
C1278       C  0.82368565  0.78796486  0.62009273    -0.34300
H1279       H  0.89184742  0.77986826  0.59382490     0.12600
H1280       H  0.95567938  0.78866933  0.59534490     0.12400
H1281       H  0.96556452  0.82595939  0.65086098     0.12300
H1282       H  0.90175076  0.81716724  0.64933562     0.11300
C1283       C  0.75644007  0.70259106  0.48609525     0.17600
C1284       C  0.76979491  0.69847469  0.50293894    -0.11500
C1285       C  0.75839573  0.70835381  0.51890284    -0.12300
C1286       C  0.73362808  0.72241854  0.51808304     0.19200
C1287       C  0.72058024  0.72690257  0.50121552    -0.14400
C1288       C  0.73198199  0.71701629  0.48524543    -0.12600
C1289       C  0.72164904  0.73218577  0.53455516     0.00200
C1290       C  0.71221303  0.74045144  0.54851839    -0.32700
C1291       C  0.76709877  0.69116181  0.46974780     0.01500
C1292       C  0.77552808  0.68101354  0.45607845    -0.34300
H1293       H  0.78873451  0.68736211  0.50373485     0.12600
H1294       H  0.76872080  0.70485745  0.53187087     0.12400
H1295       H  0.70149227  0.73783425  0.50042379     0.12300
H1296       H  0.72151801  0.72032014  0.47227669     0.11300
loop_ 
_geom_bond_atom_site_label_1 
_geom_bond_atom_site_label_2 
_geom_bond_distance 
_geom_bond_site_symmetry_2 
_ccdc_geom_bond_type 
Zr1           O2   2.438       .  S
Zr1           O3   2.429       .  S
Zr1           O4   2.432       .  S
Zr1           O7   2.424       .  S
Zr1           O9   2.380       .  S
Zr1          O10   2.381       .  S
Zr1          O11   2.400       .  S
Zr1          O12   2.401       .  S
O2           H58   0.990       .  S
O2           H66   0.990       .  S
O3           C23   1.281       .  A
O4           C25   1.282       .  A
O5          Zr15   2.435       .  S
O5           C24   1.284       .  A
O6          Zr14   2.427       .  S
O6           C25   1.282       .  A
O7           C24   1.282       .  A
O8          Zr16   2.423       .  S
O8           C23   1.280       .  A
O9          Zr14   2.394       .  S
O9          Zr16   2.379       .  S
O10         Zr15   2.392       .  S
O10         Zr16   2.371       .  S
O10          H45   0.966       .  S
O11         Zr14   2.398       .  S
O11         Zr31   2.391       .  S
O11          H48   0.965       .  S
O12         Zr15   2.392       .  S
O12         Zr31   2.396       .  S
Zr13         O38   2.443       .  S
Zr13         O32   2.429       .  S
Zr13         O40   2.432       .  S
Zr13         O28   2.433       .  S
Zr13         O19   2.401       .  S
Zr13         O20   2.404       .  S
Zr13         O21   2.376       .  S
Zr13         O22   2.381       .  S
Zr14         O33   2.438       .  S
Zr14         O26   2.435       .  S
Zr14         O27   2.431       .  S
Zr14         O20   2.398       .  S
Zr14         O21   2.385       .  S
Zr15         O17   2.434       .  S
Zr15         O39   2.439       .  S
Zr15         O41   2.433       .  S
Zr15         O19   2.393       .  S
Zr15         O22   2.388       .  S
Zr16         O42   2.435       .  S
Zr16         O43   2.435       .  S
Zr16         O18   2.438       .  S
Zr16         O19   2.398       .  S
Zr16         O20   2.394       .  S
O17          H54   0.990       .  S
O18          H49   0.990       .  S
O18          H63   0.990       .  S
O20          H46   0.965       .  S
O21         Zr31   2.375       .  S
O22         Zr31   2.374       .  S
O22          H47   0.966       .  S
C23        C1264   1.433       .  S
C24        C1234   1.434       .  S
C25        C1220   1.432       .  S
O26          H62   0.990       .  S
O27          C29   1.283       .  A
O28          C29   1.283       .  A
C29        C1248   1.434       .  S
O30         Zr31   2.440       .  S
O30          H59   0.990       .  S
Zr31         O34   2.436       .  S
Zr31         O35   2.440       .  S
Zr31         O36   2.428       .  S
O32          C37   1.282       .  A
O33          H50   0.990       .  S
O33          H65   0.990       .  S
O34          H51   0.990       .  S
O35          H55   0.990       .  S
O35          H64   0.990       .  S
O36          C37   1.282       .  A
C37        C1278   1.435       .  S
O38          H57   0.990       .  S
O38          H61   0.990       .  S
O39          H53   0.990       .  S
O39          H60   0.990       .  S
O40          C44   1.283       .  A
O41          C44   1.284       .  A
O42          H52   0.990       .  S
O43          H56   0.990       .  S
C44        C1290   1.434       .  S
Zr67         O68   2.439       .  S
Zr67         O69   2.435       .  S
Zr67         O70   2.439       .  S
Zr67         O73   2.421       .  S
Zr67         O75   2.377       .  S
Zr67         O76   2.381       .  S
Zr67         O77   2.404       .  S
Zr67         O78   2.407       .  S
O68         H124   0.990       .  S
O68         H132   0.990       .  S
O69          C89   1.283       .  A
O70          C91   1.283       .  A
O71         Zr81   2.438       .  S
O71          C90   1.284       .  A
O72         Zr80   2.429       .  S
O72          C91   1.282       .  A
O73          C90   1.281       .  A
O74         Zr82   2.419       .  S
O74          C89   1.280       .  A
O75         Zr80   2.393       .  S
O75         Zr82   2.380       .  S
O76         Zr81   2.390       .  S
O76         Zr82   2.373       .  S
O76         H111   0.966       .  S
O77         Zr80   2.399       .  S
O77         Zr97   2.394       .  S
O77         H114   0.965       .  S
O78         Zr81   2.393       .  S
O78         Zr97   2.402       .  S
Zr79        O104   2.442       .  S
Zr79         O98   2.422       .  S
Zr79        O106   2.428       .  S
Zr79         O94   2.434       .  S
Zr79         O85   2.402       .  S
Zr79         O86   2.400       .  S
Zr79         O87   2.375       .  S
Zr79         O88   2.384       .  S
Zr80         O99   2.437       .  S
Zr80         O92   2.434       .  S
Zr80         O93   2.431       .  S
Zr80         O86   2.397       .  S
Zr80         O87   2.384       .  S
Zr81         O83   2.437       .  S
Zr81        O105   2.437       .  S
Zr81        O107   2.433       .  S
Zr81         O85   2.396       .  S
Zr81         O88   2.391       .  S
Zr82        O108   2.436       .  S
Zr82        O109   2.436       .  S
Zr82         O84   2.437       .  S
Zr82         O85   2.399       .  S
Zr82         O86   2.388       .  S
O83         H120   0.990       .  S
O84         H115   0.990       .  S
O84         H129   0.990       .  S
O86         H112   0.965       .  S
O87         Zr97   2.371       .  S
O88         Zr97   2.368       .  S
O88         H113   0.966       .  S
C89        C1180   1.433       .  S
C90        C1208   1.433       .  S
C91        C1152   1.435       .  S
O92         H128   0.990       .  S
O93          C95   1.284       .  A
O94          C95   1.284       .  A
C95        C1192   1.435       .  S
O96         Zr97   2.438       .  S
O96         H125   0.990       .  S
Zr97        O100   2.435       .  S
Zr97        O101   2.439       .  S
Zr97        O102   2.436       .  S
O98         C103   1.281       .  A
O99         H116   0.990       .  S
O99         H131   0.990       .  S
O100        H117   0.990       .  S
O101        H121   0.990       .  S
O101        H130   0.990       .  S
O102        C103   1.283       .  A
C103       C1166   1.436       .  S
O104        H123   0.990       .  S
O104        H127   0.990       .  S
O105        H119   0.990       .  S
O105        H126   0.990       .  S
O106        C110   1.283       .  A
O107        C110   1.284       .  A
O108        H118   0.990       .  S
O109        H122   0.990       .  S
C110       C1292   1.432       .  S
Zr133       O134   2.439       .  S
Zr133       O135   2.432       .  S
Zr133       O136   2.432       .  S
Zr133       O139   2.423       .  S
Zr133       O141   2.379       .  S
Zr133       O142   2.381       .  S
Zr133       O143   2.402       .  S
Zr133       O144   2.402       .  S
O134        H190   0.990       .  S
O134        H198   0.990       .  S
O135        C155   1.282       .  A
O136        C157   1.282       .  A
O137       Zr147   2.437       .  S
O137        C156   1.284       .  A
O138       Zr146   2.432       .  S
O138        C157   1.283       .  A
O139        C156   1.282       .  A
O140       Zr148   2.423       .  S
O140        C155   1.281       .  A
O141       Zr146   2.390       .  S
O141       Zr148   2.377       .  S
O142       Zr147   2.390       .  S
O142       Zr148   2.375       .  S
O142        H177   0.966       .  S
O143       Zr146   2.396       .  S
O143       Zr163   2.398       .  S
O143        H180   0.966       .  S
O144       Zr147   2.390       .  S
O144       Zr163   2.400       .  S
Zr145       O170   2.442       .  S
Zr145       O164   2.428       .  S
Zr145       O172   2.436       .  S
Zr145       O160   2.430       .  S
Zr145       O151   2.399       .  S
Zr145       O152   2.403       .  S
Zr145       O153   2.379       .  S
Zr145       O154   2.380       .  S
Zr146       O165   2.437       .  S
Zr146       O158   2.435       .  S
Zr146       O159   2.426       .  S
Zr146       O152   2.397       .  S
Zr146       O153   2.386       .  S
Zr147       O149   2.434       .  S
Zr147       O171   2.438       .  S
Zr147       O173   2.433       .  S
Zr147       O151   2.396       .  S
Zr147       O154   2.388       .  S
Zr148       O174   2.435       .  S
Zr148       O175   2.436       .  S
Zr148       O150   2.438       .  S
Zr148       O151   2.398       .  S
Zr148       O152   2.391       .  S
O149        H186   0.990       .  S
O150        H181   0.990       .  S
O150        H195   0.990       .  S
O152        H178   0.966       .  S
O153       Zr163   2.371       .  S
O154       Zr163   2.373       .  S
O154        H179   0.966       .  S
C155       C1206   1.433       .  S
C156       C1136   1.434       .  S
C157       C1094   1.434       .  S
O158        H194   0.990       .  S
O159        C161   1.283       .  A
O160        C161   1.283       .  A
C161       C1122   1.430       .  S
O162       Zr163   2.439       .  S
O162        H191   0.990       .  S
Zr163       O166   2.436       .  S
Zr163       O167   2.439   1_545  S
Zr163       O168   2.436       .  S
O164        C169   1.282   1_545  A
O165        H182   0.990       .  S
O165        H197   0.990       .  S
O166        H183   0.990       .  S
O167        H187   0.990       .  S
O167        H196   0.990       .  S
O168        C169   1.283   1_545  A
C169       C1194   1.437       .  S
O170        H189   0.990       .  S
O170        H193   0.990       .  S
O171        H185   0.990       .  S
O171        H192   0.990       .  S
O172        C176   1.285       .  A
O173        C176   1.284       .  A
O174        H184   0.990       .  S
O175        H188   0.990       .  S
C176       C1110   1.437       .  S
Zr199       O200   2.439       .  S
Zr199       O201   2.440       .  S
Zr199       O202   2.435       .  S
Zr199       O205   2.423       .  S
Zr199       O207   2.380       .  S
Zr199       O208   2.383       .  S
Zr199       O209   2.404       .  S
Zr199       O210   2.401       .  S
O200        H256   0.990       .  S
O200        H264   0.990       .  S
O201        C221   1.284       .  A
O202        C223   1.283       .  A
O203       Zr213   2.435       .  S
O203        C222   1.284       .  A
O204       Zr212   2.436       .  S
O204        C223   1.283       .  A
O205        C222   1.282       .  A
O206       Zr214   2.419       .  S
O206        C221   1.280       .  A
O207       Zr212   2.391       .  S
O207       Zr214   2.381       .  S
O208       Zr213   2.390       .  S
O208       Zr214   2.372       .  S
O208        H243   0.966       .  S
O209       Zr212   2.398       .  S
O209       Zr229   2.392       .  S
O209        H246   0.965       .  S
O210       Zr213   2.394       .  S
O210       Zr229   2.397       .  S
Zr211       O236   2.441       .  S
Zr211       O230   2.429       .  S
Zr211       O238   2.437       .  S
Zr211       O226   2.433       .  S
Zr211       O217   2.401       .  S
Zr211       O218   2.403       .  S
Zr211       O219   2.378       .  S
Zr211       O220   2.381       .  S
Zr212       O231   2.438       .  S
Zr212       O224   2.434       .  S
Zr212       O225   2.434       .  S
Zr212       O218   2.396       .  S
Zr212       O219   2.388       .  S
Zr213       O215   2.434       .  S
Zr213       O237   2.437       .  S
Zr213       O239   2.437       .  S
Zr213       O217   2.392       .  S
Zr213       O220   2.391       .  S
Zr214       O240   2.436       .  S
Zr214       O241   2.435       .  S
Zr214       O216   2.437       .  S
Zr214       O217   2.399       .  S
Zr214       O218   2.391       .  S
O215        H252   0.990       .  S
O216        H247   0.990       .  S
O216        H261   0.990       .  S
O218        H244   0.965       .  S
O219       Zr229   2.373       .  S
O220       Zr229   2.373       .  S
O220        H245   0.966       .  S
C221       C1066   1.436       .  S
C222       C1262   1.434       .  S
C223       C1052   1.436       .  S
O224        H260   0.990       .  S
O225        C227   1.284       .  A
O226        C227   1.284       .  A
C227       C1276   1.436       .  S
O228       Zr229   2.439       .  S
O228        H257   0.990       .  S
Zr229       O232   2.438       .  S
Zr229       O233   2.439       .  S
Zr229       O234   2.426       .  S
O230        C235   1.283       .  A
O231        H248   0.990       .  S
O231        H263   0.990       .  S
O232        H249   0.990       .  S
O233        H253   0.990       .  S
O233        H262   0.990       .  S
O234        C235   1.281       .  A
C235       C1082   1.434       .  S
O236        H255   0.990       .  S
O236        H259   0.990       .  S
O237        H251   0.990       .  S
O237        H258   0.990       .  S
O238        C242   1.285       .  A
O239        C242   1.284       .  A
O240        H250   0.990       .  S
O241        H254   0.990       .  S
C242       C1108   1.439       .  S
Zr265       O266   2.440       .  S
Zr265       O267   2.431       .  S
Zr265       O268   2.439       .  S
Zr265       O271   2.426       .  S
Zr265       O273   2.380       .  S
Zr265       O274   2.383       .  S
Zr265       O275   2.403       .  S
Zr265       O276   2.404       .  S
O266        H322   0.990       .  S
O266        H330   0.990       .  S
O267        C287   1.282       .  A
O268        C289   1.283       .  A
O269       Zr279   2.435       .  S
O269        C288   1.284       .  A
O270       Zr278   2.429       .  S
O270        C289   1.282       .  A
O271        C288   1.282       .  A
O272       Zr280   2.423       .  S
O272        C287   1.280       .  A
O273       Zr278   2.392       .  S
O273       Zr280   2.381       .  S
O274       Zr279   2.390       .  S
O274       Zr280   2.373       .  S
O274        H309   0.966       .  S
O275       Zr278   2.397       .  S
O275       Zr295   2.397       .  S
O275        H312   0.965       .  S
O276       Zr279   2.394       .  S
O276       Zr295   2.398       .  S
Zr277       O302   2.442       .  S
Zr277       O296   2.421       .  S
Zr277       O304   2.433       .  S
Zr277       O292   2.436       .  S
Zr277       O283   2.402       .  S
Zr277       O284   2.402       .  S
Zr277       O285   2.378       .  S
Zr277       O286   2.382       .  S
Zr278       O297   2.436       .  S
Zr278       O290   2.435       .  S
Zr278       O291   2.426       .  S
Zr278       O284   2.397       .  S
Zr278       O285   2.386       .  S
Zr279       O281   2.434       .  S
Zr279       O303   2.436       .  S
Zr279       O305   2.434       .  S
Zr279       O283   2.396       .  S
Zr279       O286   2.388       .  S
Zr280       O306   2.435       .  S
Zr280       O307   2.436       .  S
Zr280       O282   2.437       .  S
Zr280       O283   2.398       .  S
Zr280       O284   2.392       .  S
O281        H318   0.990       .  S
O282        H313   0.990       .  S
O282        H327   0.990       .  S
O284        H310   0.966       .  S
O285       Zr295   2.375       .  S
O286       Zr295   2.370       .  S
O286        H311   0.965       .  S
C287       C1236   1.434       .  S
C288       C1068   1.435       .  S
C289       C1024   1.436       .  S
O290        H326   0.990       .  S
O291        C293   1.282       .  A
O292        C293   1.284       .  A
C293       C1080   1.434       .  S
O294       Zr295   2.440       .  S
O294        H323   0.990       .  S
Zr295       O298   2.438       .  S
Zr295       O299   2.441       .  S
Zr295       O300   2.433       .  S
O296        C301   1.281       .  A
O297        H314   0.990       .  S
O297        H329   0.990       .  S
O298        H315   0.990       .  S
O299        H319   0.990       .  S
O299        H328   0.990       .  S
O300        C301   1.282       .  A
C301       C1250   1.433       .  S
O302        H321   0.990       .  S
O302        H325   0.990       .  S
O303        H317   0.990       .  S
O303        H324   0.990       .  S
O304        C308   1.284       .  A
O305        C308   1.284       .  A
O306        H316   0.990       .  S
O307        H320   0.990       .  S
C308       C1038   1.436       .  S
Zr331       O332   2.441       .  S
Zr331       O333   2.430       .  S
Zr331       O334   2.435       .  S
Zr331       O337   2.429       .  S
Zr331       O339   2.379       .  S
Zr331       O340   2.382       .  S
Zr331       O341   2.405       .  S
Zr331       O342   2.402       .  S
O332        H388   0.990       .  S
O332        H396   0.990       .  S
O333        C353   1.282       .  A
O334        C355   1.283       .  A
O335       Zr345   2.430       .  S
O335        C354   1.283       .  A
O336       Zr344   2.427       .  S
O336        C355   1.282       .  A
O337        C354   1.283       .  A
O338       Zr346   2.423       .  S
O338        C353   1.280       .  A
O339       Zr344   2.392       .  S
O339       Zr346   2.378       .  S
O340       Zr345   2.393       .  S
O340       Zr346   2.374       .  S
O340        H375   0.966       .  S
O341       Zr344   2.400       .  S
O341       Zr361   2.397       .  S
O341        H378   0.966       .  S
O342       Zr345   2.391       .  S
O342       Zr361   2.396       .  S
Zr343       O368   2.441       .  S
Zr343       O362   2.422       .  S
Zr343       O370   2.432       .  S
Zr343       O358   2.431       .  S
Zr343       O349   2.400       .  S
Zr343       O350   2.400       .  S
Zr343       O351   2.377       .  S
Zr343       O352   2.379       .  S
Zr344       O363   2.436       .  S
Zr344       O356   2.434       .  S
Zr344       O357   2.433       .  S
Zr344       O350   2.394       .  S
Zr344       O351   2.384       .  S
Zr345       O347   2.434       .  S
Zr345       O369   2.436       .  S
Zr345       O371   2.431       .  S
Zr345       O349   2.392       .  S
Zr345       O352   2.387       .  S
Zr346       O372   2.437       .  S
Zr346       O373   2.435       .  S
Zr346       O348   2.436       .  S
Zr346       O349   2.397       .  S
Zr346       O350   2.393       .  S
O347        H384   0.990       .  S
O348        H379   0.990       .  S
O348        H393   0.990       .  S
O350        H376   0.966       .  S
O351       Zr361   2.374       .  S
O352       Zr361   2.372       .  S
O352        H377   0.965       .  S
C353       C1138   1.433       .  S
C354       C1178   1.434       .  S
C355       C1010   1.433       .  S
O356        H392   0.990       .  S
O357        C359   1.284       .  A
O358        C359   1.283       .  A
C359       C1164   1.436   1_545  S
O360       Zr361   2.439       .  S
O360        H389   0.990       .  S
Zr361       O364   2.437       .  S
Zr361       O365   2.441       .  S
Zr361       O366   2.430       .  S
O362        C367   1.281       .  A
O363        H380   0.990       .  S
O363        H395   0.990       .  S
O364        H381   0.990       .  S
O365        H385   0.990       .  S
O365        H394   0.990       .  S
O366        C367   1.282       .  A
C367       C1124   1.432   1_655  S
O368        H387   0.990       .  S
O368        H391   0.990       .  S
O369        H383   0.990       .  S
O369        H390   0.990       .  S
O370        C374   1.283       .  A
O371        C374   1.283       .  A
O372        H382   0.990       .  S
O373        H386   0.990       .  S
C374       C1040   1.435       .  S
Zr397       O398   2.438       .  S
Zr397       O399   2.430       .  S
Zr397       O400   2.428       .  S
Zr397       O403   2.427       .  S
Zr397       O405   2.378       .  S
Zr397       O406   2.382       .  S
Zr397       O407   2.404       .  S
Zr397       O408   2.400       .  S
O398        H454   0.990       .  S
O398        H462   0.990       .  S
O399        C419   1.282       .  A
O400        C421   1.282       .  A
O401       Zr411   2.430       .  S
O401        C420   1.283       .  A
O402       Zr410   2.426       .  S
O402        C421   1.282       .  A
O403        C420   1.283       .  A
O404       Zr412   2.430       .  S
O404        C419   1.281       .  A
O405       Zr410   2.391       .  S
O405       Zr412   2.370       .  S
O406       Zr411   2.387       .  S
O406       Zr412   2.377       .  S
O406        H441   0.965       .  S
O407       Zr410   2.395       .  S
O407       Zr427   2.400       .  S
O407        H444   0.965       .  S
O408       Zr411   2.390       .  S
O408       Zr427   2.393       .  S
Zr409       O434   2.446       .  S
Zr409       O428   2.434       .  S
Zr409       O436   2.433       .  S
Zr409       O424   2.427       .  S
Zr409       O415   2.400       .  S
Zr409       O416   2.405       .  S
Zr409       O417   2.378       .  S
Zr409       O418   2.383       .  S
Zr410       O429   2.438       .  S
Zr410       O422   2.433       .  S
Zr410       O423   2.436       .  S
Zr410       O416   2.394       .  S
Zr410       O417   2.380       .  S
Zr411       O413   2.436       .  S
Zr411       O435   2.438       .  S
Zr411       O437   2.427       .  S
Zr411       O415   2.391       .  S
Zr411       O418   2.386       .  S
Zr412       O438   2.436       .  S
Zr412       O439   2.435       .  S
Zr412       O414   2.436       .  S
Zr412       O415   2.395       .  S
Zr412       O416   2.400       .  S
O413        H450   0.990       .  S
O414        H445   0.990       .  S
O414        H459   0.990       .  S
O416        H442   0.967       .  S
O417       Zr427   2.373       .  S
O418       Zr427   2.383       .  S
O418        H443   0.966       .  S
C419        C982   1.435       .  S
C420        C954   1.433       .  S
C421        C998   1.431       .  S
O422        H458   0.990       .  S
O423        C425   1.284       .  A
O424        C425   1.282       .  A
C425        C942   1.435       .  S
O426       Zr427   2.440       .  S
O426        H455   0.990       .  S
Zr427       O430   2.437       .  S
Zr427       O431   2.440       .  S
Zr427       O432   2.423       .  S
O428        C433   1.284       .  A
O429        H446   0.990       .  S
O429        H461   0.990       .  S
O430        H447   0.990       .  S
O431        H451   0.990       .  S
O431        H460   0.989       .  S
O432        C433   1.281       .  A
C433        C968   1.433       .  S
O434        H453   0.990       .  S
O434        H457   0.990       .  S
O435        H449   0.990       .  S
O435        H456   0.990       .  S
O436        C440   1.283       .  A
O437        C440   1.283       .  A
O438        H448   0.990       .  S
O439        H452   0.990       .  S
C440       C1222   1.434       .  S
Zr463       O464   2.439       .  S
Zr463       O465   2.426       .  S
Zr463       O466   2.435       .  S
Zr463       O469   2.428       .  S
Zr463       O471   2.379       .  S
Zr463       O472   2.383       .  S
Zr463       O473   2.404       .  S
Zr463       O474   2.400       .  S
O464        H520   0.990       .  S
O464        H528   0.990       .  S
O465        C485   1.281       .  A
O466        C487   1.283       .  A
O467       Zr477   2.430       .  S
O467        C486   1.283       .  A
O468       Zr476   2.428       .  S
O468        C487   1.282       .  A
O469        C486   1.283       .  A
O470       Zr478   2.434       .  S
O470        C485   1.282       .  A
O471       Zr476   2.392       .  S
O471       Zr478   2.373       .  S
O472       Zr477   2.389       .  S
O472       Zr478   2.374       .  S
O472        H507   0.966       .  S
O473       Zr476   2.398       .  S
O473       Zr493   2.400       .  S
O473        H510   0.965       .  S
O474       Zr477   2.386       .  S
O474       Zr493   2.392       .  S
Zr475       O500   2.448       .  S
Zr475       O494   2.432       .  S
Zr475       O502   2.432       .  S
Zr475       O490   2.424       .  S
Zr475       O481   2.398       .  S
Zr475       O482   2.405       .  S
Zr475       O483   2.378       .  S
Zr475       O484   2.381       .  S
Zr476       O495   2.438       .  S
Zr476       O488   2.434       .  S
Zr476       O489   2.435       .  S
Zr476       O482   2.396       .  S
Zr476       O483   2.383       .  S
Zr477       O479   2.434       .  S
Zr477       O501   2.436       .  S
Zr477       O503   2.427       .  S
Zr477       O481   2.392       .  S
Zr477       O484   2.384       .  S
Zr478       O504   2.436       .  S
Zr478       O505   2.436       .  S
Zr478       O480   2.436       .  S
Zr478       O481   2.394       .  S
Zr478       O482   2.402       .  S
O479        H516   0.990       .  S
O480        H511   0.990       .  S
O480        H525   0.990       .  S
O482        H508   0.966       .  S
O483       Zr493   2.372       .  S
O484       Zr493   2.381       .  S
O484        H509   0.966       .  S
C485        C912   1.434       .  S
C486        C884   1.434       .  S
C487        C996   1.434       .  S
O488        H524   0.990       .  S
O489        C491   1.284       .  A
O490        C491   1.281       .  A
C491        C900   1.433       .  S
O492       Zr493   2.440       .  S
O492        H521   0.990       .  S
Zr493       O496   2.435       .  S
Zr493       O497   2.440       .  S
Zr493       O498   2.426       .  S
O494        C499   1.283       .  A
O495        H512   0.990       .  S
O495        H527   0.990       .  S
O496        H513   0.990       .  S
O497        H517   0.990       .  S
O497        H526   0.990       .  S
O498        C499   1.281       .  A
C499        C926   1.435       .  S
O500        H519   0.990       .  S
O500        H523   0.990       .  S
O501        H515   0.990       .  S
O501        H522   0.990       .  S
O502        C506   1.283       .  A
O503        C506   1.283       .  A
O504        H514   0.990       .  S
O505        H518   0.990       .  S
C506       C1150   1.434       .  S
Zr529       O530   2.439       .  S
Zr529       O531   2.424       .  S
Zr529       O532   2.435       .  S
Zr529       O535   2.428       .  S
Zr529       O537   2.379       .  S
Zr529       O538   2.383       .  S
Zr529       O539   2.403       .  S
Zr529       O540   2.400       .  S
O530        H586   0.990       .  S
O530        H594   0.990       .  S
O531        C551   1.281   1_545  A
O532        C553   1.283       .  A
O533       Zr543   2.431       .  S
O533        C552   1.283       .  A
O534       Zr542   2.427       .  S
O534        C553   1.282       .  A
O535        C552   1.283       .  A
O536       Zr544   2.436   1_565  S
O536        C551   1.283       .  A
O537       Zr542   2.391       .  S
O537       Zr544   2.371       .  S
O538       Zr543   2.388       .  S
O538       Zr544   2.374       .  S
O538        H573   0.965       .  S
O539       Zr542   2.400       .  S
O539       Zr559   2.400       .  S
O539        H576   0.965       .  S
O540       Zr543   2.393       .  S
O540       Zr559   2.392       .  S
Zr541       O566   2.443       .  S
Zr541       O560   2.437       .  S
Zr541       O568   2.426       .  S
Zr541       O556   2.425       .  S
Zr541       O547   2.402       .  S
Zr541       O548   2.406       .  S
Zr541       O549   2.376       .  S
Zr541       O550   2.379       .  S
Zr542       O561   2.436       .  S
Zr542       O554   2.436       .  S
Zr542       O555   2.437       .  S
Zr542       O548   2.395       .  S
Zr542       O549   2.384       .  S
Zr543       O545   2.434       .  S
Zr543       O567   2.437       .  S
Zr543       O569   2.430       .  S
Zr543       O547   2.391       .  S
Zr543       O550   2.385       .  S
Zr544       O570   2.437       .  S
Zr544       O571   2.436       .  S
Zr544       O546   2.437   1_545  S
Zr544       O547   2.400       .  S
Zr544       O548   2.404       .  S
O545        H582   0.990       .  S
O546        H577   0.990       .  S
O546        H591   0.990       .  S
O548        H574   0.966       .  S
O549       Zr559   2.375       .  S
O550       Zr559   2.379       .  S
O550        H575   0.966       .  S
C551        C886   1.434       .  S
C552        C856   1.434       .  S
C553        C842   1.434       .  S
O554        H590   0.990       .  S
O555        C557   1.284       .  A
O556        C557   1.281       .  A
C557        C872   1.435       .  S
O558       Zr559   2.439       .  S
O558        H587   0.990       .  S
Zr559       O562   2.437       .  S
Zr559       O563   2.440       .  S
Zr559       O564   2.421       .  S
O560        C565   1.284       .  A
O561        H578   0.990       .  S
O561        H593   0.990       .  S
O562        H579   0.990       .  S
O563        H583   0.990       .  S
O563        H592   0.989       .  S
O564        C565   1.280       .  A
C565        C898   1.434       .  S
O566        H585   0.990       .  S
O566        H589   0.990       .  S
O567        H581   0.990       .  S
O567        H588   0.990       .  S
O568        C572   1.282       .  A
O569        C572   1.283       .  A
O570        H580   0.990       .  S
O571        H584   0.990       .  S
C572       C1096   1.433       .  S
Zr595       O596   2.439       .  S
Zr595       O597   2.426       .  S
Zr595       O598   2.434       .  S
Zr595       O601   2.428       .  S
Zr595       O603   2.379       .  S
Zr595       O604   2.380       .  S
Zr595       O605   2.403       .  S
Zr595       O606   2.399       .  S
O596        H652   0.990       .  S
O596        H660   0.990       .  S
O597        C617   1.281       .  A
O598        C619   1.283       .  A
O599       Zr609   2.429       .  S
O599        C618   1.283       .  A
O600       Zr608   2.428       .  S
O600        C619   1.283       .  A
O601        C618   1.283       .  A
O602       Zr610   2.426       .  S
O602        C617   1.281       .  A
O603       Zr608   2.391       .  S
O603       Zr610   2.374       .  S
O604       Zr609   2.388       .  S
O604       Zr610   2.372       .  S
O604        H639   0.965       .  S
O605       Zr608   2.399       .  S
O605       Zr625   2.397       .  S
O605        H642   0.966       .  S
O606       Zr609   2.391       .  S
O606       Zr625   2.392       .  S
Zr607       O632   2.445       .  S
Zr607       O626   2.433       .  S
Zr607       O634   2.429       .  S
Zr607       O622   2.419       .  S
Zr607       O613   2.398       .  S
Zr607       O614   2.402       .  S
Zr607       O615   2.379       .  S
Zr607       O616   2.378       .  S
Zr608       O627   2.438       .  S
Zr608       O620   2.434       .  S
Zr608       O621   2.435       .  S
Zr608       O614   2.392       .  S
Zr608       O615   2.385       .  S
Zr609       O611   2.434       .  S
Zr609       O633   2.438       .  S
Zr609       O635   2.430       .  S
Zr609       O613   2.389       .  S
Zr609       O616   2.385       .  S
Zr610       O636   2.433       .  S
Zr610       O637   2.432       .  S
Zr610       O612   2.435       .  S
Zr610       O613   2.393       .  S
Zr610       O614   2.396       .  S
O611        H648   0.990       .  S
O612        H643   0.990       .  S
O612        H657   0.990       .  S
O614        H640   0.966       .  S
O615       Zr625   2.373       .  S
O616       Zr625   2.381       .  S
O616        H641   0.966       .  S
C617        C828   1.431       .  S
C618        C984   1.433       .  S
C619        C844   1.434       .  S
O620        H656   0.990       .  S
O621        C623   1.284       .  A
O622        C623   1.281       .  A
C623        C970   1.431       .  S
O624       Zr625   2.439       .  S
O624        H653   0.990       .  S
Zr625       O628   2.437       .  S
Zr625       O629   2.439       .  S
Zr625       O630   2.423       .  S
O626        C631   1.283       .  A
O627        H644   0.990       .  S
O627        H659   0.990       .  S
O628        H645   0.990       .  S
O629        H649   0.990       .  S
O629        H658   0.989       .  S
O630        C631   1.281       .  A
C631        C814   1.434       .  S
O632        H651   0.990       .  S
O632        H655   0.990       .  S
O633        H647   0.990       .  S
O633        H654   0.990       .  S
O634        C638   1.283       .  A
O635        C638   1.283       .  A
O636        H646   0.990       .  S
O637        H650   0.990       .  S
C638       C1054   1.434       .  S
Zr661       O662   2.440       .  S
Zr661       O663   2.427       .  S
Zr661       O664   2.433       .  S
Zr661       O667   2.430       .  S
Zr661       O669   2.381       .  S
Zr661       O670   2.382       .  S
Zr661       O671   2.405       .  S
Zr661       O672   2.400       .  S
O662        H718   0.990       .  S
O662        H726   0.990       .  S
O663        C683   1.282       .  A
O664        C685   1.283       .  A
O665       Zr675   2.434       .  S
O665        C684   1.283       .  A
O666       Zr674   2.432       .  S
O666        C685   1.283       .  A
O667        C684   1.283       .  A
O668       Zr676   2.422       .  S
O668        C683   1.280       .  A
O669       Zr674   2.390       .  S
O669       Zr676   2.372       .  S
O670       Zr675   2.387       .  S
O670       Zr676   2.377       .  S
O670        H705   0.965       .  S
O671       Zr674   2.399       .  S
O671       Zr691   2.398       .  S
O671        H708   0.965       .  S
O672       Zr675   2.390       .  S
O672       Zr691   2.394       .  S
Zr673       O698   2.446       .  S
Zr673       O692   2.432       .  S
Zr673       O700   2.434       .  S
Zr673       O688   2.425       .  S
Zr673       O679   2.398       .  S
Zr673       O680   2.407       .  S
Zr673       O681   2.380       .  S
Zr673       O682   2.381       .  S
Zr674       O693   2.438       .  S
Zr674       O686   2.436       .  S
Zr674       O687   2.436       .  S
Zr674       O680   2.397       .  S
Zr674       O681   2.387       .  S
Zr675       O677   2.435       .  S
Zr675       O699   2.438       .  S
Zr675       O701   2.430       .  S
Zr675       O679   2.391       .  S
Zr675       O682   2.386       .  S
Zr676       O702   2.434       .  S
Zr676       O703   2.434       .  S
Zr676       O678   2.436       .  S
Zr676       O679   2.392       .  S
Zr676       O680   2.397       .  S
O677        H714   0.990       .  S
O678        H709   0.990       .  S
O678        H723   0.990       .  S
O680        H706   0.967       .  S
O681       Zr691   2.372       .  S
O682       Zr691   2.381       .  S
O682        H707   0.966       .  S
C683        C956   1.430       .  S
C684        C830   1.435       .  S
C685        C800   1.436       .  S
O686        H722   0.990       .  S
O687        C689   1.284       .  A
O688        C689   1.282       .  A
C689        C816   1.434       .  S
O690       Zr691   2.439       .  S
O690        H719   0.990       .  S
Zr691       O694   2.436       .  S
Zr691       O695   2.440       .  S
Zr691       O696   2.421       .  S
O692        C697   1.283       .  A
O693        H710   0.990       .  S
O693        H725   0.990       .  S
O694        H711   0.990       .  S
O695        H715   0.990       .  S
O695        H724   0.990       .  S
O696        C697   1.280       .  A
C697        C940   1.433       .  S
O698        H717   0.990       .  S
O698        H721   0.990       .  S
O699        H713   0.990       .  S
O699        H720   0.990       .  S
O700        C704   1.283       .  A
O701        C704   1.283       .  A
O702        H712   0.990       .  S
O703        H716   0.990       .  S
C704       C1026   1.436       .  S
Zr727       O728   2.439       .  S
Zr727       O729   2.427       .  S
Zr727       O730   2.439       .  S
Zr727       O733   2.429       .  S
Zr727       O735   2.378       .  S
Zr727       O736   2.383       .  S
Zr727       O737   2.404       .  S
Zr727       O738   2.399       .  S
O728        H784   0.990       .  S
O728        H792   0.990       .  S
O729        C749   1.282       .  A
O730        C751   1.284       .  A
O731       Zr741   2.425       .  S
O731        C750   1.282       .  A
O732       Zr740   2.431       .  S
O732        C751   1.283       .  A
O733        C750   1.283       .  A
O734       Zr742   2.433       .  S
O734        C749   1.282       .  A
O735       Zr740   2.390       .  S
O735       Zr742   2.373       .  S
O736       Zr741   2.389       .  S
O736       Zr742   2.375       .  S
O736        H771   0.965       .  S
O737       Zr740   2.400       .  S
O737       Zr757   2.401       .  S
O737        H774   0.966       .  S
O738       Zr741   2.392       .  S
O738       Zr757   2.392       .  S
Zr739       O764   2.443       .  S
Zr739       O758   2.427       .  S
Zr739       O766   2.431       .  S
Zr739       O754   2.427       .  S
Zr739       O745   2.398       .  S
Zr739       O746   2.402       .  S
Zr739       O747   2.379       .  S
Zr739       O748   2.380       .  S
Zr740       O759   2.436       .  S
Zr740       O752   2.435       .  S
Zr740       O753   2.435       .  S
Zr740       O746   2.394       .  S
Zr740       O747   2.385       .  S
Zr741       O743   2.435       .  S
Zr741       O765   2.439       .  S
Zr741       O767   2.432       .  S
Zr741       O745   2.390       .  S
Zr741       O748   2.384       .  S
Zr742       O768   2.434       .  S
Zr742       O769   2.435       .  S
Zr742       O744   2.436       .  S
Zr742       O745   2.396       .  S
Zr742       O746   2.399       .  S
O743        H780   0.990       .  S
O744        H775   0.990       .  S
O744        H789   0.990       .  S
O746        H772   0.966       .  S
O747       Zr757   2.372       .  S
O748       Zr757   2.381       .  S
O748        H773   0.966       .  S
C749        C858   1.434   1_655  S
C750        C914   1.432   1_545  S
C751        C802   1.438       .  S
O752        H788   0.990       .  S
O753        C755   1.284       .  A
O754        C755   1.282       .  A
C755        C928   1.436       .  S
O756       Zr757   2.441       .  S
O756        H785   0.990       .  S
Zr757       O760   2.437       .  S
Zr757       O761   2.440       .  S
Zr757       O762   2.425       .  S
O758        C763   1.282       .  A
O759        H776   0.990       .  S
O759        H791   0.990       .  S
O760        H777   0.990       .  S
O761        H781   0.990       .  S
O761        H790   0.989       .  S
O762        C763   1.281       .  A
C763        C870   1.433       .  S
O764        H783   0.990       .  S
O764        H787   0.990       .  S
O765        H779   0.990       .  S
O765        H786   0.990       .  S
O766        C770   1.283       .  A
O767        C770   1.283       .  A
O768        H778   0.990       .  S
O769        H782   0.990       .  S
C770       C1012   1.435       .  S
C793        C801   1.442       .  S
C793        C794   1.402   1_655  A
C793        C798   1.402       .  A
C794        C795   1.400       .  A
C794        H803   1.083       .  S
C795        C796   1.402   1_554  A
C795        H804   1.083       .  S
C796        C799   1.441       .  S
C796        C797   1.401   1_455  A
C797        C798   1.400   1_556  A
C797        H805   1.083       .  S
C798        H806   1.083       .  S
C799        C800   1.207       .  T
C801        C802   1.208       .  T
C807        C815   1.439       .  S
C807        C808   1.401       .  A
C807        C812   1.401       .  A
C808        C809   1.398       .  A
C808        H817   1.083       .  S
C809        C810   1.401       .  A
C809        H818   1.083       .  S
C810        C813   1.439       .  S
C810        C811   1.402       .  A
C811        C812   1.399       .  A
C811        H819   1.083       .  S
C812        H820   1.083       .  S
C813        C814   1.206       .  T
C815        C816   1.205       .  T
C821        C829   1.438       .  S
C821        C822   1.401       .  A
C821        C826   1.401       .  A
C822        C823   1.398       .  A
C822        H831   1.083       .  S
C823        C824   1.401       .  A
C823        H832   1.084       .  S
C824        C827   1.436   1_545  S
C824        C825   1.401       .  A
C825        C826   1.398       .  A
C825        H833   1.084   1_545  S
C826        H834   1.083       .  S
C827        C828   1.204       .  T
C829        C830   1.205       .  T
C835        C843   1.438       .  S
C835        C836   1.401       .  A
C835        C840   1.401   1_556  A
C836        C837   1.398   1_566  A
C836        H845   1.083       .  S
C837        C838   1.401   1_545  A
C837        H846   1.083       .  S
C838        C841   1.439   1_565  S
C838        C839   1.401       .  A
C839        C840   1.399       .  A
C839        H847   1.083       .  S
C840        H848   1.083       .  S
C841        C842   1.205       .  T
C843        C844   1.205       .  T
C849        C857   1.439       .  S
C849        C850   1.402       .  A
C849        C854   1.401       .  A
C850        C851   1.399       .  A
C850        H859   1.083       .  S
C851        C852   1.401       .  A
C851        H860   1.083       .  S
C852        C855   1.439       .  S
C852        C853   1.401       .  A
C853        C854   1.398       .  A
C853        H861   1.083       .  S
C854        H862   1.083       .  S
C855        C856   1.205       .  T
C857        C858   1.206       .  T
C863        C871   1.440       .  S
C863        C864   1.401       .  A
C863        C868   1.402       .  A
C864        C865   1.399       .  A
C864        H873   1.083       .  S
C865        C866   1.401       .  A
C865        H874   1.084       .  S
C866        C869   1.439       .  S
C866        C867   1.401       .  A
C867        C868   1.399       .  A
C867        H875   1.084       .  S
C868        H876   1.083       .  S
C869        C870   1.205       .  T
C871        C872   1.206       .  T
C877        C885   1.439       .  S
C877        C878   1.401       .  A
C877        C882   1.401       .  A
C878        C879   1.399       .  A
C878        H887   1.083       .  S
C879        C880   1.401       .  A
C879        H888   1.083       .  S
C880        C883   1.439       .  S
C880        C881   1.401       .  A
C881        C882   1.399       .  A
C881        H889   1.083       .  S
C882        H890   1.083       .  S
C883        C884   1.205   1_455  T
C885        C886   1.206       .  T
C891        C899   1.438       .  S
C891        C892   1.401       .  A
C891        C896   1.401       .  A
C892        C893   1.399       .  A
C892        H901   1.083       .  S
C893        C894   1.402       .  A
C893        H902   1.083       .  S
C894        C897   1.439       .  S
C894        C895   1.400       .  A
C895        C896   1.398       .  A
C895        H903   1.083       .  S
C896        H904   1.084       .  S
C897        C898   1.205       .  T
C899        C900   1.205       .  T
C905        C913   1.437       .  S
C905        C906   1.400       .  A
C905        C910   1.401       .  A
C906        C907   1.398       .  A
C906        H915   1.084       .  S
C907        C908   1.401       .  A
C907        H916   1.083       .  S
C908        C911   1.439       .  S
C908        C909   1.401       .  A
C909        C910   1.399       .  A
C909        H917   1.083       .  S
C910        H918   1.084       .  S
C911        C912   1.206       .  T
C913        C914   1.204       .  T
C919        C927   1.441       .  S
C919        C920   1.402       .  A
C919        C924   1.402       .  A
C920        C921   1.399       .  A
C920        H929   1.083       .  S
C921        C922   1.401       .  A
C921        H930   1.083       .  S
C922        C925   1.440       .  S
C922        C923   1.402       .  A
C923        C924   1.399       .  A
C923        H931   1.083       .  S
C924        H932   1.083       .  S
C925        C926   1.206       .  T
C927        C928   1.207       .  T
C933        C941   1.439       .  S
C933        C934   1.401       .  A
C933        C938   1.401       .  A
C934        C935   1.399       .  A
C934        H943   1.083       .  S
C935        C936   1.401       .  A
C935        H944   1.083       .  S
C936        C939   1.438       .  S
C936        C937   1.401       .  A
C937        C938   1.399       .  A
C937        H945   1.084       .  S
C938        H946   1.083       .  S
C939        C940   1.205       .  T
C941        C942   1.206       .  T
C947        C955   1.436       .  S
C947        C948   1.400       .  A
C947        C952   1.401       .  A
C948        C949   1.397       .  A
C948        H957   1.083       .  S
C949        C950   1.400       .  A
C949        H958   1.083   1_545  S
C950        C953   1.437   1_545  S
C950        C951   1.402       .  A
C951        C952   1.399       .  A
C951        H959   1.083       .  S
C952        H960   1.084       .  S
C953        C954   1.205       .  T
C955        C956   1.203   1_655  T
C961        C969   1.437       .  S
C961        C962   1.402       .  A
C961        C966   1.400       .  A
C962        C963   1.399       .  A
C962        H971   1.084       .  S
C963        C964   1.401       .  A
C963        H972   1.083       .  S
C964        C967   1.438       .  S
C964        C965   1.402       .  A
C965        C966   1.398       .  A
C965        H973   1.083       .  S
C966        H974   1.084       .  S
C967        C968   1.205       .  T
C969        C970   1.204       .  T
C975        C983   1.438       .  S
C975        C976   1.401       .  A
C975        C980   1.401       .  A
C976        C977   1.399       .  A
C976        H985   1.084       .  S
C977        C978   1.401       .  A
C977        H986   1.083       .  S
C978        C981   1.439       .  S
C978        C979   1.401       .  A
C979        C980   1.399       .  A
C979        H987   1.083       .  S
C980        H988   1.083       .  S
C981        C982   1.206       .  T
C983        C984   1.205   1_655  T
C989        C997   1.436       .  S
C989        C990   1.401       .  A
C989        C994   1.400   1_556  A
C990        C991   1.399   1_556  A
C990        H999   1.084       .  S
C991        C992   1.401       .  A
C991       H1000   1.083       .  S
C992        C995   1.438       .  S
C992        C993   1.401       .  A
C993        C994   1.398       .  A
C993       H1001   1.083       .  S
C994       H1002   1.084       .  S
C995        C996   1.205       .  T
C997        C998   1.204       .  T
C1003      C1011   1.439       .  S
C1003      C1004   1.403       .  A
C1003      C1008   1.399       .  A
C1004      C1005   1.403       .  A
C1004      H1013   1.083       .  S
C1005      C1006   1.403       .  A
C1005      H1014   1.083       .  S
C1006      C1009   1.438       .  S
C1006      C1007   1.400       .  A
C1007      C1008   1.394       .  A
C1007      H1015   1.084       .  S
C1008      H1016   1.084       .  S
C1009      C1010   1.205       .  T
C1011      C1012   1.206       .  T
C1017      C1025   1.442       .  S
C1017      C1018   1.402       .  A
C1017      C1022   1.401       .  A
C1018      C1019   1.402       .  A
C1018      H1027   1.083       .  S
C1019      C1020   1.402       .  A
C1019      H1028   1.083       .  S
C1020      C1023   1.442       .  S
C1020      C1021   1.401       .  A
C1021      C1022   1.398       .  A
C1021      H1029   1.084       .  S
C1022      H1030   1.084       .  S
C1023      C1024   1.207       .  T
C1025      C1026   1.207       .  T
C1031      C1039   1.440       .  S
C1031      C1032   1.402   1_655  A
C1031      C1036   1.401       .  A
C1032      C1033   1.399       .  A
C1032      H1041   1.083       .  S
C1033      C1034   1.401       .  A
C1033      H1042   1.083       .  S
C1034      C1037   1.441       .  S
C1034      C1035   1.402   1_455  A
C1035      C1036   1.399       .  A
C1035      H1043   1.083       .  S
C1036      H1044   1.083       .  S
C1037      C1038   1.207       .  T
C1039      C1040   1.206       .  T
C1045      C1053   1.439       .  S
C1045      C1046   1.401       .  A
C1045      C1050   1.401       .  A
C1046      C1047   1.399       .  A
C1046      H1055   1.083       .  S
C1047      C1048   1.402       .  A
C1047      H1056   1.083       .  S
C1048      C1051   1.441       .  S
C1048      C1049   1.401       .  A
C1049      C1050   1.399       .  A
C1049      H1057   1.083       .  S
C1050      H1058   1.084       .  S
C1051      C1052   1.207       .  T
C1053      C1054   1.206       .  T
C1059      C1067   1.441       .  S
C1059      C1060   1.402       .  A
C1059      C1064   1.401       .  A
C1060      C1061   1.399       .  A
C1060      H1069   1.083       .  S
C1061      C1062   1.401       .  A
C1061      H1070   1.083       .  S
C1062      C1065   1.441       .  S
C1062      C1063   1.403       .  A
C1063      C1064   1.400       .  A
C1063      H1071   1.083       .  S
C1064      H1072   1.083       .  S
C1065      C1066   1.207       .  T
C1067      C1068   1.206       .  T
C1073      C1081   1.439   1_545  S
C1073      C1074   1.401       .  A
C1073      C1078   1.401       .  A
C1074      C1075   1.399       .  A
C1074      H1083   1.083       .  S
C1075      C1076   1.401       .  A
C1075      H1084   1.083       .  S
C1076      C1079   1.439       .  S
C1076      C1077   1.402       .  A
C1077      C1078   1.399       .  A
C1077      H1085   1.083       .  S
C1078      H1086   1.083       .  S
C1079      C1080   1.205       .  T
C1081      C1082   1.205       .  T
C1087      C1095   1.438       .  S
C1087      C1088   1.402       .  A
C1087      C1092   1.400       .  A
C1088      C1089   1.401       .  A
C1088      H1097   1.083       .  S
C1089      C1090   1.402       .  A
C1089      H1098   1.083       .  S
C1090      C1093   1.439       .  S
C1090      C1091   1.401       .  A
C1091      C1092   1.396       .  A
C1091      H1099   1.084       .  S
C1092      H1100   1.084       .  S
C1093      C1094   1.205       .  T
C1095      C1096   1.205       .  T
C1101      C1109   1.443   1_565  S
C1101      C1102   1.402       .  A
C1101      C1106   1.402   1_565  A
C1102      C1103   1.400       .  A
C1102      H1111   1.083       .  S
C1103      C1104   1.402       .  A
C1103      H1112   1.083       .  S
C1104      C1107   1.444       .  S
C1104      C1105   1.402       .  A
C1105      C1106   1.400   1_565  A
C1105      H1113   1.083       .  S
C1106      H1114   1.083       .  S
C1107      C1108   1.208       .  T
C1109      C1110   1.207       .  T
C1115      C1123   1.436       .  S
C1115      C1116   1.400       .  A
C1115      C1120   1.401       .  A
C1116      C1117   1.397       .  A
C1116      H1125   1.083       .  S
C1117      C1118   1.401       .  A
C1117      H1126   1.084       .  S
C1118      C1121   1.435       .  S
C1118      C1119   1.400       .  A
C1119      C1120   1.398       .  A
C1119      H1127   1.083       .  S
C1120      H1128   1.083       .  S
C1121      C1122   1.203       .  T
C1123      C1124   1.204       .  T
C1129      C1137   1.438       .  S
C1129      C1130   1.402       .  A
C1129      C1134   1.400       .  A
C1130      C1131   1.398       .  A
C1130      H1139   1.084       .  S
C1131      C1132   1.401       .  A
C1131      H1140   1.083       .  S
C1132      C1135   1.438       .  S
C1132      C1133   1.401       .  A
C1133      C1134   1.398       .  A
C1133      H1141   1.083       .  S
C1134      H1142   1.083       .  S
C1135      C1136   1.205       .  T
C1137      C1138   1.205       .  T
C1143      C1151   1.440       .  S
C1143      C1144   1.401       .  A
C1143      C1148   1.402       .  A
C1144      C1145   1.396       .  A
C1144      H1153   1.084       .  S
C1145      C1146   1.400       .  A
C1145      H1154   1.084       .  S
C1146      C1149   1.439       .  S
C1146      C1147   1.402       .  A
C1147      C1148   1.402       .  A
C1147      H1155   1.083       .  S
C1148      H1156   1.083       .  S
C1149      C1150   1.205       .  T
C1151      C1152   1.206       .  T
C1157      C1165   1.441       .  S
C1157      C1158   1.402       .  A
C1157      C1162   1.401       .  A
C1158      C1159   1.401       .  A
C1158      H1167   1.083       .  S
C1159      C1160   1.402       .  A
C1159      H1168   1.083       .  S
C1160      C1163   1.441       .  S
C1160      C1161   1.401       .  A
C1161      C1162   1.399       .  A
C1161      H1169   1.083       .  S
C1162      H1170   1.083       .  S
C1163      C1164   1.207       .  T
C1165      C1166   1.207       .  T
C1171      C1179   1.438       .  S
C1171      C1172   1.401       .  A
C1171      C1176   1.401       .  A
C1172      C1173   1.398       .  A
C1172      H1181   1.084       .  S
C1173      C1174   1.401       .  A
C1173      H1182   1.083       .  S
C1174      C1177   1.438       .  S
C1174      C1175   1.401       .  A
C1175      C1176   1.399       .  A
C1175      H1183   1.083       .  S
C1176      H1184   1.083       .  S
C1177      C1178   1.205       .  T
C1179      C1180   1.205       .  T
C1185      C1193   1.442       .  S
C1185      C1186   1.401       .  A
C1185      C1190   1.402       .  A
C1186      C1187   1.400       .  A
C1186      H1195   1.083       .  S
C1187      C1188   1.402       .  A
C1187      H1196   1.083       .  S
C1188      C1191   1.441   1_455  S
C1188      C1189   1.401       .  A
C1189      C1190   1.399       .  A
C1189      H1197   1.083       .  S
C1190      H1198   1.083       .  S
C1191      C1192   1.206       .  T
C1193      C1194   1.207       .  T
C1199      C1207   1.438       .  S
C1199      C1200   1.400       .  A
C1199      C1204   1.402       .  A
C1200      C1201   1.397       .  A
C1200      H1209   1.083       .  S
C1201      C1202   1.401       .  A
C1201      H1210   1.084       .  S
C1202      C1205   1.438       .  S
C1202      C1203   1.401       .  A
C1203      C1204   1.400       .  A
C1203      H1211   1.083       .  S
C1204      H1212   1.084       .  S
C1205      C1206   1.205       .  T
C1207      C1208   1.205       .  T
C1213      C1221   1.439       .  S
C1213      C1214   1.402       .  A
C1213      C1218   1.400       .  A
C1214      C1215   1.401       .  A
C1214      H1223   1.083       .  S
C1215      C1216   1.402       .  A
C1215      H1224   1.083       .  S
C1216      C1219   1.438       .  S
C1216      C1217   1.400       .  A
C1217      C1218   1.395       .  A
C1217      H1225   1.084       .  S
C1218      H1226   1.084       .  S
C1219      C1220   1.204       .  T
C1221      C1222   1.205       .  T
C1227      C1235   1.440       .  S
C1227      C1228   1.401       .  A
C1227      C1232   1.401       .  A
C1228      C1229   1.398       .  A
C1228      H1237   1.083       .  S
C1229      C1230   1.401       .  A
C1229      H1238   1.083       .  S
C1230      C1233   1.439       .  S
C1230      C1231   1.402       .  A
C1231      C1232   1.399       .  A
C1231      H1239   1.084       .  S
C1232      H1240   1.083       .  S
C1233      C1234   1.206       .  T
C1235      C1236   1.206       .  T
C1241      C1249   1.438       .  S
C1241      C1242   1.401       .  A
C1241      C1246   1.401       .  A
C1242      C1243   1.398       .  A
C1242      H1251   1.083       .  S
C1243      C1244   1.402       .  A
C1243      H1252   1.084       .  S
C1244      C1247   1.438   1_545  S
C1244      C1245   1.401       .  A
C1245      C1246   1.398       .  A
C1245      H1253   1.083   1_545  S
C1246      H1254   1.083       .  S
C1247      C1248   1.205       .  T
C1249      C1250   1.205   1_655  T
C1255      C1263   1.438       .  S
C1255      C1256   1.400       .  A
C1255      C1260   1.402       .  A
C1256      C1257   1.399       .  A
C1256      H1265   1.083       .  S
C1257      C1258   1.402       .  A
C1257      H1266   1.083       .  S
C1258      C1261   1.439       .  S
C1258      C1259   1.401       .  A
C1259      C1260   1.399       .  A
C1259      H1267   1.083       .  S
C1260      H1268   1.084       .  S
C1261      C1262   1.205       .  T
C1263      C1264   1.205       .  T
C1269      C1277   1.440       .  S
C1269      C1270   1.401       .  A
C1269      C1274   1.402       .  A
C1270      C1271   1.399       .  A
C1270      H1279   1.084       .  S
C1271      C1272   1.402       .  A
C1271      H1280   1.083       .  S
C1272      C1275   1.441   1_655  S
C1272      C1273   1.401       .  A
C1273      C1274   1.399       .  A
C1273      H1281   1.083       .  S
C1274      H1282   1.083       .  S
C1275      C1276   1.207       .  T
C1277      C1278   1.206       .  T
C1283      C1291   1.437       .  S
C1283      C1284   1.401       .  A
C1283      C1288   1.401       .  A
C1284      C1285   1.398       .  A
C1284      H1293   1.084       .  S
C1285      C1286   1.401       .  A
C1285      H1294   1.083       .  S
C1286      C1289   1.439       .  S
C1286      C1287   1.401       .  A
C1287      C1288   1.399       .  A
C1287      H1295   1.083       .  S
C1288      H1296   1.084       .  S
C1289      C1290   1.206       .  T
C1291      C1292   1.204       .  T
