geometry optimzed in LAMMPS
_audit_creation_date              2020-11-30 
_audit_creation_method            'lammps2cif' 
_symmetry_space_group_name_H-M    'P1' 
_symmetry_Int_Tables_number       1 
_symmetry_cell_setting            triclinic 
loop_ 
_symmetry_equiv_pos_as_xyz 
  x,y,z 
_cell_length_a                    54.19641914 
_cell_length_b                    54.20603527184698 
_cell_length_c                    57.55184144032831 
_cell_angle_alpha                 90.16846429156546 
_cell_angle_beta                  89.97136347895787 
_cell_angle_gamma                 121.99283283271743 
loop_ 
_atom_site_label 
_atom_site_type_symbol 
_atom_site_fract_x 
_atom_site_fract_y 
_atom_site_fract_z 
_atom_site_charge 
O1          O  0.34798891  0.52166144  0.57788338    -0.84900
O2          O  0.28984104  0.49612165  0.58807298    -0.82000
C3          C  0.28138639  0.46989770  0.58438024     0.98500
O4          O  0.28790539  0.45653630  0.59860944    -0.82000
O5          O  0.32066990  0.44931628  0.63201417    -0.84700
C6          C  0.34466419  0.45512477  0.62333911     1.03000
O7          O  0.36363273  0.48062486  0.61731823    -0.77400
O8          O  0.38627266  0.53521105  0.59984894    -0.77600
C9          C  0.37481885  0.53179340  0.57994001     1.03000
O10         O  0.36182890  0.56460367  0.61189997    -0.84900
O11         O  0.30536109  0.53406835  0.62673084    -0.82000
C12         C  0.28107850  0.51379982  0.63396944     0.98500
O13         O  0.27417333  0.48750246  0.63257534    -0.82000
O14         O  0.30983868  0.48347665  0.66401978    -0.84600
C15         C  0.33310121  0.48967295  0.67409501     1.03000
O16         O  0.35588078  0.49820570  0.66217191    -0.77500
O17         O  0.37481130  0.55336413  0.64404169    -0.77600
C18         C  0.37484704  0.57218373  0.63110389     1.03000
Cr19       Cr  0.32657224  0.52728580  0.60261622     1.93700
Cr20       Cr  0.30056997  0.47167274  0.63104806     1.93200
Cr21       Cr  0.36731508  0.51595397  0.63029185     1.39100
O22         O  0.33152068  0.50476700  0.62140419    -1.22700
O23         O  0.16664845  0.63489087  0.58163171    -0.84900
O24         O  0.18622379  0.69120929  0.57301686    -0.82000
C25         C  0.19180826  0.71671183  0.57497771     0.98500
O26         O  0.18998944  0.72627133  0.59465749    -0.82000
O27         O  0.13254344  0.69133426  0.61076602    -0.84700
C28         C  0.10975967  0.66888632  0.61823595     1.03000
O29         O  0.11212637  0.65122203  0.63083186    -0.77400
O30         O  0.12428201  0.62444997  0.59528679    -0.77600
C31         C  0.13926205  0.62168167  0.57990941     1.03000
O32         O  0.20559705  0.65264207  0.62056091    -0.84900
O33         O  0.22854745  0.70952007  0.60962179    -0.82000
C34         C  0.23205232  0.72290059  0.62856256     0.98500
O35         O  0.21051130  0.72042816  0.63928370    -0.82000
O36         O  0.15495395  0.69041455  0.65692895    -0.84600
C37         C  0.15543517  0.67098660  0.66891291     1.03000
O38         O  0.15444313  0.64963709  0.65911571    -0.77500
O39         O  0.16091214  0.61672932  0.62586880    -0.77600
C40         C  0.18787339  0.62673985  0.62625379     1.03000
Cr41       Cr  0.19481954  0.67212998  0.59767897     1.93700
Cr42       Cr  0.17156869  0.70465505  0.62472015     1.93200
Cr43       Cr  0.14006462  0.63810358  0.62703845     1.39100
O44         O  0.16896765  0.67176053  0.61644220    -1.22700
O45         O  0.49735421  0.86559493  0.56663496    -0.84900
O46         O  0.50873694  0.82180163  0.57142985    -0.82000
C47         C  0.53593561  0.83543936  0.56916103     0.98500
O48         O  0.55201831  0.85287555  0.58491660    -0.82000
O49         O  0.56842002  0.89160511  0.62230841    -0.84700
C50         C  0.56893204  0.91448371  0.61678474     1.03000
O51         O  0.54599170  0.91376265  0.61159796    -0.77400
O52         O  0.49217393  0.89225972  0.59249084    -0.77600
C53         C  0.49425584  0.88654300  0.57145265     1.03000
O54         O  0.45099958  0.83644112  0.59926168    -0.84900
O55         O  0.46854709  0.79801024  0.60835599    -0.82000
C56         C  0.48449879  0.78883200  0.61490097     0.98500
O57         O  0.51202593  0.80545855  0.61532767    -0.82000
O58         O  0.52630266  0.84452446  0.65089335    -0.84600
C59         C  0.52413855  0.86273621  0.66299481     1.03000
O60         O  0.52102731  0.88185165  0.65336976    -0.77500
O61         O  0.46650639  0.85596720  0.63340073    -0.77600
C62         C  0.44570237  0.84119867  0.61953694     1.03000
Cr63       Cr  0.48359864  0.83242166  0.58815800     1.93700
Cr64       Cr  0.53752673  0.84920505  0.61762378     1.93200
Cr65       Cr  0.50663050  0.88360361  0.62175018     1.39100
O66         O  0.50947860  0.85519045  0.60933157    -1.22700
O67         O  0.17319447  0.52949991  0.44069737    -0.84900
O68         O  0.18041738  0.48346084  0.44745867    -0.82000
C69         C  0.17928037  0.45985301  0.44411684     0.98500
O70         O  0.17799035  0.45068199  0.42350939    -0.82000
O71         O  0.12342308  0.43338800  0.40810301    -0.84700
C72         C  0.10236242  0.43639388  0.40398971     1.03000
O73         O  0.10632611  0.45927137  0.39457623    -0.77400
O74         O  0.12847404  0.49929801  0.42988488    -0.77600
C75         C  0.14626578  0.51731353  0.44447184     1.03000
O76         O  0.20999403  0.54610677  0.40078191    -0.84900
O77         O  0.22242740  0.50422741  0.41131913    -0.82000
C78         C  0.22443177  0.49606478  0.39124152     0.98500
O79         O  0.20174673  0.48060185  0.37932255    -0.82000
O80         O  0.14623839  0.45969679  0.36284240    -0.84600
C81         C  0.14797784  0.48120677  0.35242194     1.03000
O82         O  0.14976847  0.50198969  0.36383289    -0.77500
O83         O  0.16851113  0.54348839  0.39813058    -0.77600
C84         C  0.19597249  0.55806638  0.39616224     1.03000
Cr85       Cr  0.19435162  0.51402251  0.42360635     1.93700
Cr86       Cr  0.16253674  0.45848076  0.39418058     1.93200
Cr87       Cr  0.14008427  0.50018406  0.39709204     1.39100
O88         O  0.16554954  0.49073024  0.40487769    -1.22700
O89         O  0.35993687  0.85444391  0.43686568    -0.84900
O90         O  0.30419907  0.81044601  0.43066101    -0.82000
C91         C  0.28984990  0.82271778  0.43169086     0.98500
O92         O  0.29053861  0.83827100  0.41516467    -0.82000
O93         O  0.31494107  0.87765331  0.37915643    -0.84700
C94         C  0.33534035  0.90057286  0.38878926     1.03000
O95         O  0.35755320  0.90133038  0.39637789    -0.77400
O96         O  0.39417576  0.88420551  0.41311203    -0.77600
C97         C  0.38556596  0.87504186  0.43353949     1.03000
O98         O  0.37988430  0.83007062  0.40280690    -0.84900
O99         O  0.32293195  0.78840184  0.39358429    -0.82000
C100        C  0.29669081  0.77673148  0.38780446     0.98500
O101        O  0.28518889  0.79192299  0.38614224    -0.82000
O102        O  0.31413988  0.83320029  0.35071138    -0.84600
C103        C  0.33463713  0.85482951  0.34015606     1.03000
O104        O  0.35478745  0.87558869  0.35187673    -0.77500
O105        O  0.38644213  0.85368520  0.37021838    -0.77600
C106        C  0.39236193  0.83889631  0.38332532     1.03000
Cr107      Cr  0.34148718  0.82251358  0.41432053     1.93700
Cr108      Cr  0.30384027  0.83585089  0.38346171     1.93200
Cr109      Cr  0.37065089  0.87637089  0.38363341     1.39100
O110        O  0.33859237  0.84473272  0.39362200    -1.22700
O111        O  0.48041907  0.65132762  0.43734373    -0.84900
O112        O  0.50213150  0.70946649  0.43204388    -0.82000
C113        C  0.52913213  0.72104255  0.43525018     0.98500
O114        O  0.54435327  0.71799935  0.42019848    -0.82000
O115        O  0.55684014  0.69107811  0.38414372    -0.84700
C116        C  0.55312340  0.66732080  0.39174036     1.03000
O117        O  0.52862795  0.64770074  0.39907121    -0.77400
O118        O  0.47176910  0.61704255  0.41249791    -0.77600
C119        C  0.47337035  0.62558494  0.43324469     1.03000
O120        O  0.43899444  0.63817553  0.40073977    -0.84900
O121        O  0.46561399  0.69664930  0.39250638    -0.82000
C122        C  0.48466259  0.72268318  0.38790604     0.98500
O123        O  0.51151098  0.73116546  0.38829721    -0.82000
O124        O  0.52048502  0.70079444  0.35365089    -0.84600
C125        C  0.51793404  0.67923617  0.34285077     1.03000
O126        O  0.51305268  0.65686789  0.35377627    -0.77500
O127        O  0.45638447  0.63131399  0.36874406    -0.77600
C128        C  0.43498220  0.62705294  0.38066766     1.03000
Cr129      Cr  0.47372182  0.67391130  0.41420221     1.93700
Cr130      Cr  0.53100452  0.70778362  0.38719761     1.93200
Cr131      Cr  0.49300430  0.64087283  0.38430519     1.39100
O132        O  0.49929046  0.67431374  0.39510846    -1.22700
O133        O  0.63022653  0.51180070  0.41235782    -0.84900
O134        O  0.65055991  0.55152680  0.37686334    -0.82000
C135        C  0.67009094  0.57547605  0.38570012     0.98500
O136        O  0.69494658  0.58011756  0.39041988    -0.82000
O137        O  0.73284656  0.56590097  0.40861994    -0.84700
C138        C  0.72437517  0.55725449  0.42925428     1.03000
O139        O  0.70027564  0.53393824  0.43268058    -0.77400
O140        O  0.64593961  0.48483769  0.42521502    -0.77600
C141        C  0.63020094  0.49532026  0.42776037     1.03000
O142        O  0.62859826  0.46853964  0.38163713    -0.84900
O143        O  0.65295027  0.50955691  0.34738078    -0.82000
C144        C  0.67291819  0.53061238  0.33616976     0.98500
O145        O  0.69319547  0.55272254  0.34665523    -0.82000
O146        O  0.72790556  0.53433427  0.36598887    -0.84600
C147        C  0.73497270  0.52056992  0.37934723     1.03000
O148        O  0.72407829  0.51382305  0.39937216    -0.77500
O149        O  0.66883144  0.46910671  0.38758745    -0.77600
C150        C  0.64245481  0.45562348  0.38146071     1.03000
Cr151      Cr  0.64337564  0.51140661  0.38017682     1.93700
Cr152      Cr  0.70988335  0.55585072  0.37865040     1.93200
Cr153      Cr  0.68437055  0.50211544  0.40962073     1.39100
O154        O  0.67918739  0.52329999  0.38940109    -1.22700
O155        O  0.50282850  0.38091009  0.57833892    -0.84900
O156        O  0.46261274  0.36130130  0.61366332    -0.82000
C157        C  0.43855554  0.34226194  0.60475893     0.98500
O158        O  0.43396702  0.31789922  0.59834166    -0.82000
O159        O  0.44769334  0.27894871  0.58087779    -0.84700
C160        C  0.45733752  0.28779426  0.56049428     1.03000
O161        O  0.48135485  0.31133174  0.55782479    -0.77400
O162        O  0.53001708  0.36506321  0.56605762    -0.77600
C163        C  0.51934384  0.38061021  0.56303735     1.03000
O164        O  0.54507085  0.38190724  0.61003855    -0.84900
O165        O  0.50266121  0.35734621  0.64360464    -0.82000
C166        C  0.48042408  0.33777173  0.65412724     0.98500
O167        O  0.45864894  0.31838809  0.64275330    -0.82000
O168        O  0.47708105  0.28389040  0.62491277    -0.84600
C169        C  0.49211537  0.27704896  0.61304505     1.03000
O170        O  0.49928204  0.28639560  0.59257465    -0.77500
O171        O  0.54437819  0.34151522  0.60422127    -0.77600
C172        C  0.55768991  0.36778546  0.61056395     1.03000
Cr173      Cr  0.50237407  0.36773895  0.61069339     1.93700
Cr174      Cr  0.45677360  0.30191407  0.61092425     1.93200
Cr175      Cr  0.51202017  0.32643541  0.58166545     1.39100
O176        O  0.49026883  0.33206026  0.60115841    -1.22700
O177        O  0.52468327  0.13827499  0.40989679    -0.84900
O178        O  0.46861577  0.11470459  0.39481925    -0.82000
C179        C  0.44590115  0.11040488  0.38522669     0.98500
O180        O  0.44587782  0.13162161  0.37584807    -0.82000
O181        O  0.46311740  0.17466887  0.41050311    -0.84700
C182        C  0.47933290  0.19480547  0.42452364     1.03000
O183        O  0.50660233  0.20954498  0.42132593    -0.77400
O184        O  0.52088748  0.16968750  0.43105863    -0.77600
C185        C  0.52581873  0.14961631  0.42951679     1.03000
O186        O  0.54408150  0.16365363  0.36444877    -0.84900
O187        O  0.48834274  0.13646570  0.34796721    -0.82000
C188        C  0.48731361  0.15555070  0.33591486     0.98500
O189        O  0.48750947  0.17649119  0.34563417    -0.82000
O190        O  0.50103843  0.21976310  0.37760528    -0.84600
C191        C  0.52860790  0.23684762  0.37635104     1.03000
O192        O  0.54485798  0.22781819  0.38209484    -0.77500
O193        O  0.56409172  0.19185338  0.39477048    -0.77600
C194        C  0.56641171  0.18097851  0.37594971     1.03000
Cr195      Cr  0.50613275  0.14037518  0.37985199     1.93700
Cr196      Cr  0.47631152  0.17528587  0.37820857     1.93200
Cr197      Cr  0.53219442  0.19779163  0.40594836     1.39100
O198        O  0.50504297  0.17127877  0.38773318    -1.22700
O199        O  0.87551525  0.49790572  0.58580807    -0.84900
O200        O  0.89821987  0.55296993  0.60154660    -0.82000
C201        C  0.90007953  0.57614362  0.60774039     0.98500
O202        O  0.87852183  0.57549119  0.61710459    -0.82000
O203        O  0.83632648  0.55679760  0.58259638    -0.84700
C204        C  0.81711620  0.54013534  0.56814536     1.03000
O205        O  0.80273195  0.51309972  0.57188696    -0.77400
O206        O  0.84473919  0.50011516  0.56268169    -0.77600
C207        C  0.86631817  0.49746912  0.56550282     1.03000
O208        O  0.84698393  0.47602106  0.62988343    -0.84900
O209        O  0.87351510  0.53169962  0.64691625    -0.82000
C210        C  0.85438357  0.53291629  0.65859486     0.98500
O211        O  0.83437786  0.53389778  0.64831035    -0.82000
O212        O  0.79125944  0.51834884  0.61577798    -0.84600
C213        C  0.77491159  0.49073681  0.61693169     1.03000
O214        O  0.78440195  0.47501160  0.61066981    -0.77500
O215        O  0.82130891  0.45724061  0.59838137    -0.77600
C216        C  0.83050048  0.45403249  0.61760208     1.03000
Cr217      Cr  0.87124300  0.51486082  0.61540973     1.93700
Cr218      Cr  0.83554189  0.54410614  0.61523752     1.93200
Cr219      Cr  0.81527511  0.48852821  0.58732188     1.39100
O220        O  0.84072077  0.51586514  0.60616519    -1.22700
O221        O  0.87321133  0.39148615  0.40987639    -0.84900
O222        O  0.89233450  0.37195197  0.37420306    -0.82000
C223        C  0.89419088  0.35251553  0.38449257     0.98500
O224        O  0.87115970  0.32943659  0.39055576    -0.82000
O225        O  0.81308928  0.29159187  0.40279133    -0.84700
C226        C  0.80870689  0.29899757  0.42256862     1.03000
O227        O  0.81007189  0.32276143  0.42515815    -0.77400
O228        O  0.82913295  0.37991449  0.41860578    -0.77600
C229        C  0.85569790  0.39191920  0.42407114     1.03000
O230        O  0.83998095  0.40235478  0.37722244    -0.84900
O231        O  0.85302794  0.37461599  0.34337663    -0.82000
C232        C  0.85338062  0.35423119  0.33300687     0.98500
O233        O  0.85339389  0.33417460  0.34430773    -0.82000
O234        O  0.79672675  0.30006362  0.35699130    -0.84600
C235        C  0.77346774  0.29560714  0.36580317     1.03000
O236        O  0.77358704  0.30707395  0.38497902    -0.77500
O237        O  0.79580039  0.36469566  0.37642351    -0.77600
C238        C  0.81317432  0.39155264  0.37361810     1.03000
Cr239      Cr  0.86250987  0.38248838  0.37665958     1.93700
Cr240      Cr  0.83364409  0.31614222  0.37448378     1.93200
Cr241      Cr  0.80425316  0.34377598  0.40004556     1.39100
O242        O  0.83332152  0.34720368  0.38373961    -1.22700
O243        O  0.61649433  0.13815837  0.59354626    -0.84900
O244        O  0.64430572  0.12372309  0.62543777    -0.82000
C245        C  0.66268741  0.12218032  0.61294357     0.98500
O246        O  0.68427278  0.14500890  0.60463303    -0.82000
O247        O  0.71782637  0.20251758  0.58875539    -0.84700
C248        C  0.70688507  0.20442668  0.56986026     1.03000
O249        O  0.68162500  0.19986374  0.56959901    -0.77400
O250        O  0.62596578  0.18078253  0.58163415    -0.77600
C251        C  0.61299494  0.15348603  0.57915389     1.03000
O252        O  0.61121142  0.17455420  0.62671526    -0.84900
O253        O  0.64606215  0.16580864  0.65698453    -0.82000
C254        C  0.66775082  0.16564044  0.66474596     0.98500
O255        O  0.68623960  0.16586735  0.65109620    -0.82000
O256        O  0.71506142  0.22181430  0.63510951    -0.84600
C257        C  0.71720575  0.24387558  0.62578513     1.03000
O258        O  0.70313479  0.24142135  0.60746918    -0.77500
O259        O  0.64730109  0.21892045  0.62136379    -0.77600
C260        C  0.62136722  0.20163235  0.62722727     1.03000
Cr261      Cr  0.63204066  0.15275862  0.62496024     1.93700
Cr262      Cr  0.69833706  0.18359733  0.61930807     1.93200
Cr263      Cr  0.66465548  0.20823483  0.59633499     1.39100
O264        O  0.66511391  0.18155773  0.61345053    -1.22700
O265        O  0.63641722  0.46823078  0.07453220    -0.84900
O266        O  0.69126645  0.51346391  0.06351483    -0.82000
C267        C  0.71601755  0.53645504  0.06481673     0.98500
O268        O  0.72613385  0.54769931  0.08465382    -0.82000
O269        O  0.69229288  0.56746113  0.10278179    -0.84700
C270        C  0.66902914  0.56551796  0.10915067     1.03000
O271        O  0.64908862  0.54268069  0.11882981    -0.77400
O272        O  0.62479128  0.49956044  0.08503281    -0.77600
C273        C  0.62197302  0.48005104  0.07127881     1.03000
O274        O  0.66022151  0.45521368  0.11338921    -0.84900
O275        O  0.71559674  0.49542415  0.09806780    -0.82000
C276        C  0.72827611  0.50520967  0.11725424     0.98500
O277        O  0.72294996  0.52121035  0.12938192    -0.82000
O278        O  0.69259728  0.54409507  0.14787234    -0.84600
C279        C  0.67221512  0.52402780  0.15984572     1.03000
O280        O  0.65063207  0.50261049  0.15008175    -0.77500
O281        O  0.62203092  0.45863314  0.11859939    -0.77600
C282        C  0.63450987  0.44452256  0.12047717     1.03000
Cr283      Cr  0.67573114  0.48505973  0.08885603     1.93700
Cr284      Cr  0.70604420  0.54271315  0.11551277     1.93200
Cr285      Cr  0.63927908  0.50164345  0.11733786     1.39100
O286        O  0.67372143  0.51002911  0.10729054    -1.22700
O287        O  0.51826336  0.35277257  0.92636789    -0.84900
O288        O  0.49262943  0.29465152  0.91772335    -0.82000
C289        C  0.46585547  0.28478423  0.92056119     0.98500
O290        O  0.45167707  0.28922535  0.90556280    -0.82000
O291        O  0.44156565  0.31800208  0.87058137    -0.84700
C292        C  0.44465442  0.34057803  0.88010664     1.03000
O293        O  0.46909481  0.36041308  0.88753135    -0.77400
O294        O  0.52563249  0.38870976  0.90387180    -0.77600
C295        C  0.52618528  0.37899552  0.92375972     1.03000
O296        O  0.55871578  0.36620903  0.88971864    -0.84900
O297        O  0.53026962  0.30855099  0.87829781    -0.82000
C298        C  0.51065955  0.28315812  0.87268597     0.98500
O299        O  0.48412043  0.27550468  0.87349975    -0.82000
O300        O  0.47884295  0.30960756  0.84028867    -0.84600
C301        C  0.48337729  0.33243152  0.83044309     1.03000
O302        O  0.48799996  0.35429472  0.84221687    -0.77500
O303        O  0.54335386  0.37891232  0.85953974    -0.77600
C304        C  0.56378544  0.38048148  0.87117456     1.03000
Cr305      Cr  0.52296705  0.33067056  0.90148311     1.93700
Cr306      Cr  0.46650386  0.30060884  0.87320936     1.93200
Cr307      Cr  0.50574523  0.36773208  0.87402069     1.39100
O308        O  0.49842830  0.33309670  0.88286933    -1.22700
O309        O  0.64274523  0.16649752  0.93288030    -0.84900
O310        O  0.70125349  0.20575563  0.92777646    -0.82000
C311        C  0.71272242  0.19108202  0.93166883     0.98500
O312        O  0.71012615  0.17242996  0.91702787    -0.82000
O313        O  0.68434261  0.13103523  0.88179186    -0.84700
C314        C  0.66120804  0.10961400  0.89010055     1.03000
O315        O  0.64041061  0.11250443  0.89585074    -0.77400
O316        O  0.60921482  0.13739412  0.90803694    -0.77600
C317        C  0.61717479  0.14583182  0.92872728     1.03000
O318        O  0.63103295  0.19331112  0.89499166    -0.84900
O319        O  0.68958046  0.22792326  0.88722781    -0.82000
C320        C  0.71520929  0.23560434  0.88198472     0.98500
O321        O  0.72383983  0.21808770  0.88398752    -0.82000
O322        O  0.69356116  0.17661604  0.85044217    -0.84600
C323        C  0.67240572  0.15626403  0.83943394     1.03000
O324        O  0.65029090  0.13717029  0.85044096    -0.77500
O325        O  0.62375228  0.16696094  0.86386308    -0.77600
C326        C  0.62062533  0.18540571  0.87476193     1.03000
Cr327      Cr  0.66616660  0.19632822  0.90934904     1.93700
Cr328      Cr  0.70036798  0.17415478  0.88389025     1.93200
Cr329      Cr  0.63351524  0.14080782  0.88036074     1.39100
O330        O  0.66672390  0.17042066  0.89119667    -1.22700
O331        O  0.84338163  0.48988089  0.92774708    -0.84900
O332        O  0.80886833  0.51203481  0.92390991    -0.82000
C333        C  0.82516055  0.53902073  0.92744340     0.98500
O334        O  0.84413805  0.55515379  0.91270602    -0.82000
O335        O  0.88526906  0.56915154  0.87838431    -0.84700
C336        C  0.90439513  0.56547022  0.88754473     1.03000
O337        O  0.89880533  0.54032238  0.89209352    -0.77400
O338        O  0.86884729  0.48231567  0.90260513    -0.77600
C339        C  0.86098863  0.48213089  0.92330030     1.03000
O340        O  0.81328164  0.45083927  0.88975223    -0.84900
O341        O  0.78334683  0.47761986  0.88327104    -0.82000
C342        C  0.77798400  0.49694006  0.87863919     0.98500
O343        O  0.79772399  0.52370611  0.87961266    -0.82000
O344        O  0.83837851  0.53387433  0.84596874    -0.84600
C345        C  0.85736708  0.53168522  0.83513175     1.03000
O346        O  0.87523234  0.52793262  0.84620568    -0.77500
O347        O  0.84006331  0.47003102  0.85859228    -0.77600
C348        C  0.82104876  0.44811591  0.86968306     1.03000
Cr349      Cr  0.81429959  0.48463094  0.90479288     1.93700
Cr350      Cr  0.84146681  0.54313174  0.87959209     1.93200
Cr351      Cr  0.86866838  0.50571055  0.87565038     1.39100
O352        O  0.84137553  0.51120333  0.88661865    -1.22700
O353        O  0.53752334  0.18635898  0.07512616    -0.84900
O354        O  0.49421401  0.19665747  0.06628028    -0.82000
C355        C  0.47265479  0.19927762  0.06868563     0.98500
O356        O  0.46067718  0.19536150  0.08848596    -0.82000
O357        O  0.44045710  0.13827059  0.10207124    -0.84700
C358        C  0.44170084  0.11685779  0.10881687     1.03000
O359        O  0.46399421  0.12040677  0.11907103    -0.77400
O360        O  0.50570115  0.14167148  0.08471130    -0.77600
C361        C  0.52433041  0.15949741  0.07050994     1.03000
O362        O  0.55300570  0.22246522  0.11557078    -0.84900
O363        O  0.51313395  0.23677078  0.10412358    -0.82000
C364        C  0.50400021  0.23709124  0.12421103     0.98500
O365        O  0.48643980  0.21384676  0.13446606    -0.82000
O366        O  0.46254356  0.15780518  0.14853630    -0.84600
C367        C  0.48276799  0.15868663  0.16040174     1.03000
O368        O  0.50540210  0.16260272  0.15058720    -0.77500
O369        O  0.54922082  0.18037891  0.11802734    -0.77600
C370        C  0.56436518  0.20787309  0.11979501     1.03000
Cr371      Cr  0.52260256  0.20845050  0.09153258     1.93700
Cr372      Cr  0.46473467  0.17645388  0.11763301     1.93200
Cr373      Cr  0.50550096  0.15309298  0.11752010     1.39100
O374        O  0.49747398  0.17925225  0.10891153    -1.22700
O375        O  0.85416890  0.37456160  0.06192981    -0.84900
O376        O  0.81156856  0.31703886  0.06833386    -0.82000
C377        C  0.82572113  0.30476880  0.06596528     0.98500
O378        O  0.84401266  0.30809119  0.08123555    -0.82000
O379        O  0.88371500  0.33514871  0.11806075    -0.84700
C380        C  0.90602966  0.35866004  0.11114109     1.03000
O381        O  0.90371268  0.37898191  0.10336333    -0.77400
O382        O  0.88108752  0.40951120  0.08665045    -0.77600
C383        C  0.87526750  0.39998987  0.06600770     1.03000
O384        O  0.82653886  0.39097778  0.09542212    -0.84900
O385        O  0.78949209  0.33335072  0.10609769    -0.82000
C386        C  0.78045943  0.30784156  0.11281915     0.98500
O387        O  0.79682765  0.29766110  0.11178449    -0.82000
O388        O  0.83608419  0.32778834  0.14616961    -0.84600
C389        C  0.85543493  0.34920966  0.15755430     1.03000
O390        O  0.87554136  0.37092826  0.14691303    -0.77500
O391        O  0.84738217  0.39693819  0.12909215    -0.77600
C392        C  0.83106234  0.40071403  0.11592703     1.03000
Cr393      Cr  0.82217588  0.35393157  0.08434306     1.93700
Cr394      Cr  0.84075838  0.31963565  0.11356043     1.93200
Cr395      Cr  0.87475052  0.38663380  0.11575078     1.39100
O396        O  0.84602787  0.35330104  0.10453895    -1.22700
O397        O  0.39279359  0.50592299  0.92160079    -0.84900
O398        O  0.36237217  0.46485200  0.88793948    -0.82000
C399        C  0.34323163  0.44335523  0.89959777     0.98500
O400        O  0.32170479  0.44335544  0.90798429    -0.82000
O401        O  0.29072907  0.46655637  0.92755940    -0.84700
C402        C  0.30229781  0.47753039  0.94709528     1.03000
O403        O  0.32872807  0.49703320  0.94793452    -0.77400
O404        O  0.38432699  0.53757037  0.93739952    -0.77600
C405        C  0.39675279  0.52335872  0.93776788     1.03000
O406        O  0.39851709  0.55120242  0.89182934    -0.84900
O407        O  0.36325569  0.50929687  0.85975401    -0.82000
C408        C  0.34095104  0.48803793  0.85062807     0.98500
O409        O  0.32146046  0.46783655  0.86321011    -0.82000
O410        O  0.29492962  0.49399428  0.88396353    -0.84600
C411        C  0.29245931  0.51162553  0.89662725     1.03000
O412        O  0.30756482  0.52151415  0.91496710    -0.77500
O413        O  0.36368619  0.55851344  0.90104938    -0.77600
C414        C  0.38891558  0.56795593  0.89346573     1.03000
Cr415      Cr  0.37669602  0.50729973  0.89110157     1.93700
Cr416      Cr  0.30987544  0.47013538  0.89625523     1.93200
Cr417      Cr  0.34589158  0.52672730  0.92377306     1.39100
O418        O  0.34413807  0.50140536  0.90363711    -1.22700
O419        O  0.14690384  0.53217498  0.10347772    -0.84900
O420        O  0.11994693  0.47526177  0.11785229    -0.82000
C421        C  0.11593913  0.45138467  0.12475120     0.98500
O422        O  0.13596266  0.45032456  0.13526245    -0.82000
O423        O  0.17700039  0.46239550  0.10119034    -0.84700
C424        C  0.19516148  0.47736305  0.08556372     1.03000
O425        O  0.21001023  0.50476361  0.08669756    -0.77400
O426        O  0.17345774  0.52429712  0.07972980    -0.77600
C427        C  0.15543193  0.53180722  0.08309945     1.03000
O428        O  0.17629806  0.55015083  0.14733062    -0.84900
O429        O  0.14380913  0.49361134  0.16357612    -0.82000
C430        C  0.16226287  0.49183117  0.17572299     0.98500
O431        O  0.18263125  0.49103069  0.16582717    -0.82000
O432        O  0.22356205  0.49925231  0.13228182    -0.84600
C433        C  0.24258746  0.52616236  0.13051824     1.03000
O434        O  0.23533234  0.54383605  0.12492911    -0.77500
O435        O  0.20272843  0.56704828  0.11565308    -0.77600
C436        C  0.19509701  0.57116615  0.13531015     1.03000
Cr437      Cr  0.14886445  0.51229805  0.13236670     1.93700
Cr438      Cr  0.17956474  0.47803896  0.13303887     1.93200
Cr439      Cr  0.20332446  0.53299054  0.10325179     1.39100
O440        O  0.17735794  0.50774658  0.12289141    -1.22700
O441        O  0.14413242  0.60966930  0.91632099    -0.84900
O442        O  0.11927855  0.63924856  0.90090319    -0.82000
C443        C  0.11622927  0.65947440  0.89405024     0.98500
O444        O  0.13774720  0.68315257  0.88671661    -0.82000
O445        O  0.17798573  0.70960848  0.92309952    -0.84700
C446        C  0.19694524  0.71321593  0.93785951     1.03000
O447        O  0.21238476  0.70254352  0.93415252    -0.77400
O448        O  0.17338709  0.64460599  0.94023949    -0.77600
C449        C  0.15201387  0.61921986  0.93685999     1.03000
O450        O  0.17502668  0.62253258  0.87225611    -0.84900
O451        O  0.14617187  0.64834325  0.85629551    -0.82000
C452        C  0.16453575  0.67105554  0.84539717     0.98500
O453        O  0.18406869  0.69298890  0.85643085    -0.82000
O454        O  0.22465459  0.72366899  0.89123318    -0.84600
C455        C  0.24271277  0.71558170  0.89022560     1.03000
O456        O  0.23451831  0.68951432  0.89421845    -0.77500
O457        O  0.20080905  0.63131813  0.90384154    -0.77600
C458        C  0.19305465  0.61982640  0.88395560     1.03000
Cr459      Cr  0.14845466  0.63261140  0.88724543     1.93700
Cr460      Cr  0.18076528  0.69976812  0.88999264     1.93200
Cr461      Cr  0.20326461  0.66687680  0.91663746     1.39100
O462        O  0.17740981  0.66641564  0.89786110    -1.22700
O463        O  0.52794613  0.89867271  0.91371222    -0.84900
O464        O  0.56377704  0.90547494  0.87648835    -0.82000
C465        C  0.58382972  0.90514617  0.88729984     0.98500
O466        O  0.57979328  0.88162267  0.89522862    -0.82000
O467        O  0.54983302  0.82552972  0.91324082    -0.84700
C468        C  0.53983748  0.82514952  0.93321095     1.03000
O469        O  0.52171402  0.83261769  0.93605811    -0.77400
O470        O  0.49130133  0.85844449  0.92832997    -0.77600
C471        C  0.51004489  0.88541341  0.92997380     1.03000
O472        O  0.47783324  0.86437412  0.88471857    -0.84900
O473        O  0.51433040  0.86611121  0.84970544    -0.82000
C474        C  0.53212888  0.86156083  0.83932146     0.98500
O475        O  0.55038930  0.85836411  0.85062010    -0.82000
O476        O  0.51868345  0.80412889  0.87060565    -0.84600
C477        C  0.49834456  0.78431318  0.88258571     1.03000
O478        O  0.48992693  0.79029545  0.90100345    -0.77500
O479        O  0.46260230  0.81858386  0.88986613    -0.77600
C480        C  0.45760970  0.83789824  0.88438227     1.03000
Cr481      Cr  0.52098065  0.88123488  0.88194421     1.93700
Cr482      Cr  0.54778467  0.84323801  0.88315317     1.93200
Cr483      Cr  0.49348916  0.82687446  0.91218313     1.39100
O484        O  0.52080941  0.85031542  0.89244131    -1.22700
O485        O  0.41527354  0.88212353  0.09138463    -0.84900
O486        O  0.38559389  0.90669810  0.10788407    -0.82000
C487        C  0.36501721  0.90951014  0.11429166     0.98500
O488        O  0.34177505  0.88801512  0.12233538    -0.82000
O489        O  0.31390330  0.84770360  0.08657225    -0.84700
C490        C  0.30988276  0.82899636  0.07145623     1.03000
O491        O  0.32197502  0.81462969  0.07349448    -0.77400
O492        O  0.37973672  0.85481943  0.06735318    -0.77600
C493        C  0.40603474  0.87396616  0.07078267     1.03000
O494        O  0.40234770  0.85023625  0.13470363    -0.84900
O495        O  0.37732266  0.87939448  0.15260649    -0.82000
C496        C  0.35437015  0.86076181  0.16321986     0.98500
O497        O  0.33283923  0.84134384  0.15194675    -0.82000
O498        O  0.30222140  0.80132737  0.11783432    -0.84600
C499        C  0.31061664  0.78350474  0.11789431     1.03000
O500        O  0.33597636  0.79111600  0.11160385    -0.77500
O501        O  0.39451405  0.82673150  0.10187962    -0.77600
C502        C  0.40631155  0.83390375  0.12171949     1.03000
Cr503      Cr  0.39245260  0.87743373  0.12087986     1.93700
Cr504      Cr  0.32535325  0.84502236  0.11896194     1.93200
Cr505      Cr  0.35814324  0.82379650  0.09016201     1.39100
O506        O  0.35855383  0.84871052  0.11015325    -1.22700
O507        O  0.52260342  0.63535805  0.08868416    -0.84900
O508        O  0.56106230  0.66085955  0.12584240    -0.82000
C509        C  0.58375547  0.68353666  0.11872967     0.98500
O510        O  0.58323893  0.70575560  0.11300730    -0.82000
O511        O  0.55849615  0.73495971  0.09424612    -0.84700
C512        C  0.55002124  0.72586297  0.07364090     1.03000
O513        O  0.52948785  0.70000647  0.07006388    -0.77400
O514        O  0.48826687  0.64213839  0.07741138    -0.77600
C515        C  0.50387469  0.63175339  0.07371622     1.03000
O516        O  0.47546428  0.62296472  0.11998833    -0.84900
O517        O  0.51477547  0.65271393  0.15459207    -0.82000
C518        C  0.53260669  0.67474343  0.16635910     0.98500
O519        O  0.55192903  0.69749725  0.15599477    -0.82000
O520        O  0.52468082  0.72335881  0.13686400    -0.84600
C521        C  0.50737642  0.72600547  0.12396858     1.03000
O522        O  0.50248166  0.71565942  0.10375789    -0.77500
O523        O  0.46661361  0.65772947  0.11575578    -0.77600
C524        C  0.45831311  0.63206437  0.12164697     1.03000
Cr525      Cr  0.51902881  0.64562852  0.12153934     1.93700
Cr526      Cr  0.55249704  0.71287273  0.12413820     1.93200
Cr527      Cr  0.49869055  0.67890487  0.09331078     1.39100
O528        O  0.52374121  0.67923157  0.11301256    -1.22700
C529        C  0.46419374  0.81486819  0.11838779    -0.05100
C530        C  0.45650495  0.79571427  0.13734273     0.09100
C531        C  0.43501951  0.79242705  0.15313299    -0.02400
C532        C  0.41961709  0.80639598  0.14891457    -0.00700
C533        C  0.42574163  0.82369538  0.12886842    -0.04300
C534        C  0.44900024  0.82893940  0.11423698     0.02700
C535        C  0.46782258  0.77582341  0.13821456     0.09500
C536        C  0.42797242  0.77362910  0.17310680     0.35400
C537        C  0.45734318  0.84876809  0.09478043     0.38900
C538        C  0.49564183  0.78525013  0.14728478    -0.04700
C539        C  0.50810926  0.76819438  0.14407818     0.02500
C540        C  0.49286637  0.74173620  0.13143981    -0.04300
C541        C  0.46405935  0.73156375  0.12376236    -0.00500
C542        C  0.45168393  0.74847655  0.12726616    -0.03100
C543        C  0.51174428  0.81301577  0.15919526     0.36200
C544        C  0.44692550  0.70392471  0.11169036     0.39800
C545        C  0.53726972  0.77887003  0.15255123     0.38900
C546        C  0.42258561  0.73827820  0.11866452     0.35800
C547        C  0.48683444  0.81893657  0.10245630     0.36500
C548        C  0.39629915  0.80150885  0.16436445     0.39800
N549        N  0.56055527  0.78740818  0.15932527    -0.38300
N550        N  0.52452134  0.83520125  0.16869986    -0.39900
N551        N  0.43278945  0.68214694  0.10184290    -0.37600
N552        N  0.39940382  0.73018685  0.11186581    -0.40000
N553        N  0.42243464  0.75862942  0.18905452    -0.39800
N554        N  0.37765883  0.79764601  0.17664105    -0.37400
N555        N  0.46446368  0.86470361  0.07931204    -0.38500
N556        N  0.50486755  0.82212264  0.08976649    -0.40100
C557        C  0.53045445  0.77878239  0.98562422    -0.05100
C558        C  0.55958323  0.78944253  0.99187517     0.09100
C559        C  0.58247110  0.81199752  0.97888240    -0.02400
C560        C  0.57622671  0.82396187  0.95966311    -0.00700
C561        C  0.54706218  0.81314560  0.95331899    -0.04300
C562        C  0.52417705  0.79038408  0.96633316     0.02700
C563        C  0.56551485  0.77717752  0.01280558     0.09500
C564        C  0.61234611  0.82306050  0.98553986     0.35400
C565        C  0.49403480  0.77834310  0.95964417     0.38900
C566        C  0.56461540  0.75077759  0.01113331    -0.04700
C567        C  0.56368218  0.73585837  0.03145248     0.02500
C568        C  0.56140774  0.74615566  0.05350355    -0.04300
C569        C  0.56481006  0.77391904  0.05514105    -0.00500
C570        C  0.56748500  0.78959714  0.03478794    -0.03100
C571        C  0.56249218  0.73795229  0.98849057     0.36200
C572        C  0.56289021  0.78538265  0.07742127     0.39800
C573        C  0.56428482  0.70948681  0.02956290     0.38900
C574        C  0.57018877  0.81766267  0.03631292     0.35800
C575        C  0.50687237  0.75599063  0.99929582     0.36500
C576        C  0.59967803  0.84819445  0.94706981     0.39800
N577        N  0.56482218  0.68849250  0.02789146    -0.38300
N578        N  0.56042376  0.72755213  0.97043901    -0.39900
N579        N  0.56121019  0.79463585  0.09509279    -0.37600
N580        N  0.57246713  0.84010556  0.03736869    -0.40000
N581        N  0.63619079  0.83187996  0.99090796    -0.39800
N582        N  0.61831376  0.86766995  0.93706442    -0.37400
N583        N  0.47001191  0.76873802  0.95435756    -0.38500
N584        N  0.48812427  0.73789914  0.01026040    -0.40100
C585        C  0.44208564  0.87138224  0.01492820    -0.05100
C586        C  0.46394170  0.90090541  0.01154895     0.09100
C587        C  0.46670408  0.92201904  0.02756877    -0.02400
C588        C  0.44778913  0.91357870  0.04697463    -0.00700
C589        C  0.42625772  0.88390132  0.05054044    -0.04300
C590        C  0.42391252  0.86284762  0.03452679     0.02700
C591        C  0.48511608  0.90838700  0.99201951     0.09500
C592        C  0.48921240  0.95228783  0.02418557     0.35400
C593        C  0.40403172  0.83199933  0.03891022     0.38900
C594        C  0.48149477  0.91877134  0.97060909    -0.04700
C595        C  0.49447447  0.91596370  0.95022172     0.02500
C596        C  0.50908122  0.90079230  0.95103970    -0.04300
C597        C  0.51580747  0.89399492  0.97290249    -0.00500
C598        C  0.50473244  0.89884424  0.99339011    -0.03100
C599        C  0.46241972  0.92988751  0.96922298     0.36200
C600        C  0.53242214  0.88015993  0.97448797     0.39800
C601        C  0.49034025  0.92598894  0.92808247     0.38900
C602        C  0.51116822  0.89135098  0.01582644     0.35800
C603        C  0.43868242  0.84948817  0.99836430     0.36500
C604        C  0.45032690  0.93541805  0.06308057     0.39800
N605        N  0.48710315  0.93400647  0.91039528    -0.38300
N606        N  0.44711853  0.93869441  0.96812712    -0.39900
N607        N  0.54560925  0.86911845  0.97666390    -0.37600
N608        N  0.51626183  0.88542775  0.03374763    -0.40000
N609        N  0.50716375  0.97645907  0.02140285    -0.39800
N610        N  0.45236423  0.95286871  0.07593714    -0.37400
N611        N  0.38834864  0.80745303  0.04254070    -0.38500
N612        N  0.43603500  0.83202955  0.98523097    -0.40100
C613        C  0.23925188  0.79321405  0.03742985    -0.05100
C614        C  0.24933914  0.79176372  0.01514288     0.09100
C615        C  0.27954575  0.80745498  0.01070768    -0.02400
C616        C  0.29950834  0.82266060  0.02881479    -0.00700
C617        C  0.28949356  0.82160491  0.05167704    -0.04300
C618        C  0.25927704  0.80781123  0.05575789     0.02700
C619        C  0.22904938  0.77007369  0.99744664     0.09500
C620        C  0.29012813  0.80608984  0.98785629     0.35400
C621        C  0.24872473  0.80640978  0.07917350     0.38900
C622        C  0.22144653  0.77909082  0.97712873    -0.04700
C623        C  0.20842562  0.75971036  0.95810968     0.02500
C624        C  0.20321103  0.73123347  0.95929644    -0.04300
C625        C  0.20877796  0.72170109  0.98048565    -0.00500
C626        C  0.22130779  0.74091888  0.99946645    -0.03100
C627        C  0.22850491  0.80881686  0.97544041     0.36200
C628        C  0.20325982  0.69253835  0.98263316     0.39800
C629        C  0.20288495  0.76999978  0.93670207     0.38900
C630        C  0.22802561  0.73115699  0.02068688     0.35800
C631        C  0.20823542  0.77816035  0.04174382     0.36500
C632        C  0.33048144  0.83859122  0.02401600     0.39800
N633        N  0.19856569  0.77827037  0.91959271    -0.38300
N634        N  0.23423524  0.83259173  0.97416333    -0.39900
N635        N  0.19952607  0.66959689  0.98485701    -0.37600
N636        N  0.23331032  0.72335570  0.03760248    -0.40000
N637        N  0.29844051  0.80478206  0.96964541    -0.39800
N638        N  0.35510232  0.85139493  0.01985074    -0.37400
N639        N  0.24035795  0.80516996  0.09790099    -0.38500
N640        N  0.18346012  0.76614028  0.04514496    -0.40100
C641        C  0.32477784  0.75496103  0.89685809    -0.05100
C642        C  0.33430473  0.77781277  0.88077720     0.09100
C643        C  0.31389922  0.78073328  0.86793512    -0.02400
C644        C  0.28388411  0.76010571  0.87050259    -0.00700
C645        C  0.27419428  0.73714992  0.88668924    -0.04300
C646        C  0.29490234  0.73525899  0.90034294     0.02700
C647        C  0.36610358  0.79898954  0.87810268     0.09500
C648        C  0.32389651  0.80526128  0.85240925     0.35400
C649        C  0.28568351  0.71399327  0.91887294     0.38900
C650        C  0.38160238  0.79526662  0.86016227    -0.04700
C651        C  0.41224910  0.81100770  0.86070924     0.02500
C652        C  0.42723177  0.82908559  0.87989606    -0.04300
C653        C  0.41170059  0.83391807  0.89715091    -0.00500
C654        C  0.38124593  0.81961923  0.89580152    -0.03100
C655        C  0.36594827  0.77346593  0.84231910     0.36200
C656        C  0.42627057  0.85056546  0.91784063     0.39800
C657        C  0.42835232  0.80739519  0.84226181     0.38900
C658        C  0.36521051  0.82412784  0.91379378     0.35800
C659        C  0.34588817  0.75191751  0.91002430     0.36500
C660        C  0.26322383  0.76228622  0.85607931     0.39800
N661        N  0.44123908  0.80447852  0.82760734    -0.38300
N662        N  0.35332827  0.75580971  0.82827836    -0.39900
N663        N  0.43679715  0.86296297  0.93493520    -0.37600
N664        N  0.35247780  0.82767505  0.92819614    -0.40000
N665        N  0.33197225  0.82499270  0.84017720    -0.39800
N666        N  0.24696089  0.76421446  0.84440167    -0.37400
N667        N  0.27835085  0.69715766  0.93370856    -0.38500
N668        N  0.36277602  0.74957718  0.92047356    -0.40100
C669        C  0.12666592  0.59922360  0.99899994    -0.05100
C670        C  0.12661426  0.57333343  0.00130499     0.09100
C671        C  0.12777498  0.55898982  0.98124615    -0.02400
C672        C  0.13399245  0.57287925  0.95945177    -0.00700
C673        C  0.13756516  0.60058811  0.95752893    -0.04300
C674        C  0.13135540  0.61243489  0.97700659     0.02700
C675        C  0.13291521  0.56507958  0.02429514     0.09500
C676        C  0.12492033  0.53092701  0.98349433     0.35400
C677        C  0.13075839  0.63875219  0.97451733     0.38900
C678        C  0.11059467  0.54369609  0.03846881    -0.04700
C679        C  0.11770615  0.53302279  0.05813107     0.02500
C680        C  0.14716211  0.54350840  0.06336780    -0.04300
C681        C  0.16940252  0.56597181  0.04974519    -0.00500
C682        C  0.16227274  0.57694249  0.03053940    -0.03100
C683        C  0.08046910  0.53263314  0.03267529     0.36200
C684        C  0.19982112  0.57806561  0.05549921     0.39800
C685        C  0.09479223  0.51045886  0.07234488     0.38900
C686        C  0.18529606  0.60032041  0.01689308     0.35800
C687        C  0.12392048  0.61320917  0.01948371     0.36500
C688        C  0.13955145  0.55980189  0.93978883     0.39800
N689        N  0.07655239  0.49244966  0.08372644    -0.38300
N690        N  0.05639951  0.52391670  0.02814816    -0.39900
N691        N  0.22406461  0.58761424  0.05997384    -0.37600
N692        N  0.20366689  0.61905135  0.00611809    -0.40000
N693        N  0.12245769  0.50848140  0.98542933    -0.39800
N694        N  0.14411452  0.54891514  0.92448151    -0.37400
N695        N  0.13023625  0.65970394  0.97243574    -0.38500
N696        N  0.12180058  0.62441719  0.03584347    -0.40100
C697        C  0.20613634  0.64546949  0.13952472    -0.05100
C698        C  0.23665364  0.66241270  0.14183653     0.09100
C699        C  0.25225805  0.64898956  0.14705740    -0.02400
C700        C  0.23769508  0.61849855  0.14785561    -0.00700
C701        C  0.20766873  0.60144291  0.14292618    -0.04300
C702        C  0.19161331  0.61488357  0.13986159     0.02700
C703        C  0.25299304  0.69368718  0.13529842     0.09500
C704        C  0.28362722  0.66653639  0.14986205     0.35400
C705        C  0.16066328  0.59731193  0.13503980     0.38900
C706        C  0.25856357  0.71532173  0.15176983    -0.04700
C707        C  0.27682221  0.74492549  0.14594175     0.02500
C708        C  0.28982504  0.75277222  0.12374183    -0.04300
C709        C  0.28296923  0.73106010  0.10688821    -0.00500
C710        C  0.26437538  0.70157891  0.11261637    -0.03100
C711        C  0.24572730  0.70702698  0.17471290     0.36200
C712        C  0.29457350  0.73905762  0.08349619     0.39800
C713        C  0.28286040  0.76717828  0.16300858     0.38900
C714        C  0.25689180  0.67922097  0.09520696     0.35800
C715        C  0.19009459  0.65953298  0.13521529     0.36500
C716        C  0.25389700  0.60468875  0.15265356     0.39800
N717        N  0.28746221  0.78476208  0.17673514    -0.38300
N718        N  0.23534575  0.70037739  0.19298545    -0.39900
N719        N  0.30374705  0.74540727  0.06483144    -0.37600
N720        N  0.25072190  0.66131713  0.08137206    -0.40000
N721        N  0.30866729  0.68053090  0.15189407    -0.39800
N722        N  0.26710913  0.59404132  0.15670557    -0.37400
N723        N  0.13599391  0.58328301  0.13108576    -0.38500
N724        N  0.17738810  0.67087254  0.13184803    -0.40100
C725        C  0.38141043  0.56560980  0.12407658    -0.05100
C726        C  0.36720556  0.57664952  0.13696606     0.09100
C727        C  0.38364247  0.60420338  0.14767463    -0.02400
C728        C  0.41387329  0.62171728  0.14383288    -0.00700
C729        C  0.42769488  0.61188867  0.12892975    -0.04300
C730        C  0.41153441  0.58321069  0.11985891     0.02700
C731        C  0.33489849  0.56194017  0.13539276     0.09500
C732        C  0.36916745  0.61504062  0.16176155     0.35400
C733        C  0.42522081  0.57238536  0.10475295     0.38900
C734        C  0.31648832  0.54387718  0.15334658    -0.04700
C735        C  0.28605033  0.53130322  0.15169622     0.02500
C736        C  0.27412353  0.53719516  0.13222559    -0.04300
C737        C  0.29267197  0.55439808  0.11386322    -0.00500
C738        C  0.32284023  0.56660687  0.11545330    -0.03100
C739        C  0.32895977  0.53830924  0.17340138     0.36200
C740        C  0.28075112  0.55906182  0.09291081     0.39800
C741        C  0.26716836  0.51294209  0.17021671     0.38900
C742        C  0.34164688  0.58399493  0.09642983     0.35800
C743        C  0.36457051  0.53670091  0.11398175     0.36500
C744        C  0.43070569  0.64991539  0.15512018     0.39800
N745        N  0.25207957  0.49819010  0.18496404    -0.38300
N746        N  0.33901172  0.53388594  0.18937435    -0.39900
N747        N  0.27138426  0.56287582  0.07618544    -0.37600
N748        N  0.35672491  0.59766465  0.08127309    -0.40000
N749        N  0.35763104  0.62367656  0.17303819    -0.39800
N750        N  0.44421730  0.67238929  0.16411594    -0.37400
N751        N  0.43603935  0.56369405  0.09267072    -0.38500
N752        N  0.35111060  0.51365558  0.10592167    -0.40100
C753        C  0.24227071  0.43663566  0.99254483    -0.05100
C754        C  0.24881184  0.45924126  0.00833026     0.09100
C755        C  0.27386304  0.48700378  0.00502808    -0.02400
C756        C  0.29172539  0.49262532  0.98552809    -0.00700
C757        C  0.28463525  0.47033018  0.96885101    -0.04300
C758        C  0.26000234  0.44213997  0.97277232     0.02700
C759        C  0.22854763  0.45517022  0.02766443     0.09500
C760        C  0.28071269  0.51021715  0.02146799     0.35400
C761        C  0.25294179  0.41868753  0.95665598     0.38900
C762        C  0.23380054  0.44924841  0.05036991    -0.04700
C763        C  0.21991517  0.45318454  0.06951913     0.02500
C764        C  0.20123373  0.46362978  0.06599559    -0.04300
C765        C  0.19437925  0.46746230  0.04315334    -0.00500
C766        C  0.20779794  0.46296521  0.02402465    -0.03100
C767        C  0.25542094  0.44163987  0.05410931     0.36200
C768        C  0.17510136  0.47804898  0.03935066     0.39800
C769        C  0.22691329  0.44909304  0.09296172     0.38900
C770        C  0.20225555  0.46887446  0.00065683     0.35800
C771        C  0.21716338  0.40780203  0.99667242     0.36500
C772        C  0.31639154  0.52210176  0.98224118     0.39800
N773        N  0.23251926  0.44589064  0.11167352    -0.38300
N774        N  0.27286550  0.43581327  0.05705767    -0.39900
N775        N  0.15990618  0.48664887  0.03604171    -0.37600
N776        N  0.19799869  0.47371794  0.98201505    -0.40000
N777        N  0.28607710  0.52866497  0.03455344    -0.39800
N778        N  0.33598284  0.54561870  0.97973126    -0.37400
N779        N  0.24727432  0.39996436  0.94377472    -0.38500
N780        N  0.19718851  0.38476350  0.00009733    -0.40100
C781        C  0.46648979  0.55774514  0.97236190    -0.05100
C782        C  0.45526129  0.55453379  0.99505364     0.09100
C783        C  0.42520749  0.53523645  0.99895816    -0.02400
C784        C  0.40624106  0.52176201  0.97999767    -0.00700
C785        C  0.41701849  0.52876041  0.95709025    -0.04300
C786        C  0.44732258  0.54520209  0.95330755     0.02700
C787        C  0.47340300  0.57593301  0.01360413     0.09500
C788        C  0.41343870  0.53117703  0.02226573     0.35400
C789        C  0.45860754  0.55093909  0.92980108     0.38900
C790        C  0.47821427  0.60411603  0.01246240    -0.04700
C791        C  0.49042353  0.62318112  0.03148239     0.02500
C792        C  0.49798233  0.61426285  0.05207774    -0.04300
C793        C  0.49506062  0.58671003  0.05252925    -0.00500
C794        C  0.48281937  0.56762650  0.03327098    -0.03100
C795        C  0.46888944  0.61294769  0.99210675     0.36200
C796        C  0.50220099  0.57689396  0.07341935     0.39800
C797        C  0.49352083  0.65144244  0.02994649     0.38900
C798        C  0.47872653  0.53896208  0.03397590     0.35800
C799        C  0.49758391  0.57600615  0.96857879     0.36500
C800        C  0.37564134  0.50081497  0.98412959     0.39800
N801        N  0.49522338  0.67355730  0.02816620    -0.38300
N802        N  0.46148040  0.61994388  0.97589023    -0.39900
N803        N  0.50769701  0.56894814  0.09014470    -0.37600
N804        N  0.47539107  0.51604357  0.03447396    -0.40000
N805        N  0.40394944  0.52800415  0.04080734    -0.39800
N806        N  0.35148645  0.48361557  0.98794803    -0.37400
N807        N  0.46756334  0.55548972  0.91101777    -0.38500
N808        N  0.52242292  0.59067209  0.96566491    -0.40100
C809        C  0.43901546  0.64001126  0.86258031    -0.05100
C810        C  0.44135619  0.65998883  0.87956354     0.09100
C811        C  0.42796307  0.64975695  0.90140937    -0.02400
C812        C  0.41113587  0.61972070  0.90587270    -0.00700
C813        C  0.40804858  0.59954361  0.88868912    -0.04300
C814        C  0.42286538  0.60983153  0.86729990     0.02700
C815        C  0.45694378  0.69190970  0.87466710     0.09500
C816        C  0.43140962  0.67029191  0.91932450     0.35400
C817        C  0.42099280  0.58944790  0.84996187     0.38900
C818        C  0.44061660  0.70502652  0.87159205    -0.04700
C819        C  0.45430927  0.73547272  0.87314773     0.02500
C820        C  0.48478275  0.75319347  0.87621270    -0.04300
C821        C  0.50148262  0.74014895  0.87682596    -0.00500
C822        C  0.48750849  0.70952147  0.87661036    -0.03100
C823        C  0.40936733  0.68692880  0.86813208     0.36200
C824        C  0.53280317  0.75810672  0.87961490     0.39800
C825        C  0.43658604  0.74818114  0.87291743     0.38900
C826        C  0.50429404  0.69606646  0.88000644     0.35800
C827        C  0.45260881  0.65053034  0.84009751     0.36500
C828        C  0.39751586  0.60965758  0.92847249     0.39800
N829        N  0.42167240  0.75746057  0.87307518    -0.38300
N830        N  0.38447227  0.67244752  0.86535096    -0.39900
N831        N  0.55779728  0.77246327  0.88182180    -0.37600
N832        N  0.51758625  0.68523259  0.88283153    -0.40000
N833        N  0.43417663  0.68671213  0.93355028    -0.39800
N834        N  0.38662442  0.60163036  0.94646146    -0.37400
N835        N  0.41971631  0.57326231  0.83613287    -0.38500
N836        N  0.46342820  0.65898701  0.82214180    -0.40100
C837        C  0.19719846  0.55341571  0.87280534    -0.05100
C838        C  0.22757847  0.56591347  0.87398046     0.09100
C839        C  0.24633100  0.59639027  0.87302722    -0.02400
C840        C  0.23480387  0.61433822  0.87389827    -0.00700
C841        C  0.20444850  0.60186403  0.87551485    -0.04300
C842        C  0.18563566  0.57145407  0.87304976     0.02700
C843        C  0.24005246  0.54767394  0.87929406     0.09500
C844        C  0.27758403  0.60923662  0.87231001     0.35400
C845        C  0.15444953  0.55870706  0.87185592     0.38900
C846        C  0.25034808  0.53762175  0.86144980    -0.04700
C847        C  0.26567349  0.52388554  0.86693877     0.02500
C848        C  0.27179514  0.52111428  0.89045818    -0.04300
C849        C  0.25922279  0.52921128  0.90826933    -0.00500
C850        C  0.24364888  0.54254836  0.90265982    -0.03100
C851        C  0.24587477  0.54226374  0.83741419     0.36200
C852        C  0.26145510  0.52327565  0.93249435     0.39800
C853        C  0.27499968  0.51280427  0.84819093     0.38900
C854        C  0.23194954  0.55188070  0.92102674     0.35800
C855        C  0.17793952  0.52205067  0.87258267     0.36500
C856        C  0.25428177  0.64566333  0.87310479     0.39800
N857        N  0.28166212  0.50344515  0.83305191    -0.38300
N858        N  0.24237667  0.54606780  0.81824008    -0.39900
N859        N  0.26287077  0.51861364  0.95189445    -0.37600
N860        N  0.22259592  0.55937655  0.93558126    -0.40000
N861        N  0.30249215  0.61938960  0.87166695    -0.39800
N862        N  0.27028210  0.67057060  0.87204882    -0.37400
N863        N  0.12956119  0.54858223  0.87079756    -0.38500
N864        N  0.16259003  0.49699867  0.87245672    -0.40100
C865        C  0.03975707  0.39100644  0.14012096    -0.05100
C866        C  0.02544273  0.38845066  0.11891895     0.09100
C867        C  0.04197379  0.40128837  0.09866199    -0.02400
C868        C  0.07244878  0.41942237  0.10015539    -0.00700
C869        C  0.08644111  0.42519840  0.12196374    -0.04300
C870        C  0.07026652  0.40960304  0.14172579     0.02700
C871        C  0.99391273  0.37852661  0.11891710     0.09500
C872        C  0.02743424  0.39788709  0.07664908     0.35400
C873        C  0.08448464  0.41496978  0.16415856     0.38900
C874        C  0.98591689  0.39776387  0.12740282    -0.04700
C875        C  0.95708829  0.39075081  0.12526105     0.02500
C876        C  0.93580081  0.36437768  0.11445958    -0.04300
C877        C  0.94357800  0.34469951  0.10654100    -0.00500
C878        C  0.97265492  0.35182102  0.10873160    -0.03100
C879        C  0.00771928  0.42544568  0.13768147     0.36200
C880        C  0.92212770  0.31796747  0.09501976     0.39800
C881        C  0.94955376  0.41104641  0.13415121     0.38900
C882        C  0.98099520  0.33219556  0.09992448     0.35800
C883        C  0.02277553  0.37653124  0.16068525     0.36500
C884        C  0.08930580  0.43340153  0.07941384     0.39800
N885        N  0.94378504  0.42745753  0.14104986    -0.38300
N886        N  0.02509017  0.44744933  0.14588842    -0.39900
N887        N  0.90500495  0.29669585  0.08573692    -0.37600
N888        N  0.98778940  0.31666316  0.09278986    -0.40000
N889        N  0.01576455  0.39513984  0.05912727    -0.39800
N890        N  0.10265839  0.44448802  0.06282067    -0.37400
N891        N  0.09584319  0.41939483  0.18205097    -0.38500
N892        N  0.00921925  0.36506308  0.17711774    -0.40100
C893        C  0.39932047  0.04092332  0.08579039    -0.05100
C894        C  0.38620075  0.02582172  0.10655910     0.09100
C895        C  0.38536153  0.04107751  0.12613016    -0.02400
C896        C  0.40073895  0.07167081  0.12582857    -0.00700
C897        C  0.41690419  0.08686201  0.10598230    -0.04300
C898        C  0.41457684  0.07153689  0.08547522     0.02700
C899        C  0.37950619  0.99556563  0.10941888     0.09500
C900        C  0.37107368  0.02543043  0.14723987     0.35400
C901        C  0.43002757  0.08736842  0.06474911     0.38900
C902        C  0.40153078  0.99157083  0.11792742    -0.04700
C903        C  0.39639506  0.96342664  0.12012463     0.02500
C904        C  0.36922325  0.93889811  0.11340598    -0.04300
C905        C  0.34690450  0.94293748  0.10536204    -0.00500
C906        C  0.35213979  0.97130141  0.10331834    -0.03100
C907        C  0.42981315  0.01666613  0.12406106     0.36200
C908        C  0.31894940  0.91813476  0.09838780     0.39800
C909        C  0.41908175  0.95988347  0.12981896     0.38900
C910        C  0.32970718  0.97568779  0.09448448     0.35800
C911        C  0.39955800  0.02508792  0.06553480     0.36500
C912        C  0.40179062  0.08762707  0.14649071     0.39800
N913        N  0.43719030  0.95709390  0.13750309    -0.38300
N914        N  0.45232008  0.03673230  0.12884571    -0.39900
N915        N  0.29660770  0.89836541  0.09284600    -0.37600
N916        N  0.31188218  0.97927442  0.08735755    -0.40000
N917        N  0.35981642  0.01297415  0.16412635    -0.39800
N918        N  0.40257112  0.10032539  0.16296379    -0.37400
N919        N  0.44235611  0.10009915  0.04824625    -0.38500
N920        N  0.39983185  0.01236646  0.04945729    -0.40100
C921        C  0.63819202  0.22581567  0.14279134    -0.05100
C922        C  0.65720000  0.24888704  0.12802054     0.09100
C923        C  0.64586456  0.25978017  0.11180040    -0.02400
C924        C  0.61558821  0.24684110  0.10955760    -0.00700
C925        C  0.59627517  0.22315955  0.12395517    -0.04300
C926        C  0.60778337  0.21302991  0.14085314     0.02700
C927        C  0.68916897  0.26078013  0.12810853     0.09500
C928        C  0.66550996  0.28382542  0.09682855     0.35400
C929        C  0.58839247  0.18956131  0.15631074     0.38900
C930        C  0.70050008  0.24810823  0.11357264    -0.04700
C931        C  0.73074308  0.26245234  0.10976584     0.02500
C932        C  0.74977384  0.28955943  0.12054328    -0.04300
C933        C  0.73855219  0.30090613  0.13666331    -0.00500
C934        C  0.70828521  0.28670600  0.14023058    -0.03100
C935        C  0.68079862  0.22113266  0.10144818     0.36200
C936        C  0.75820195  0.32735704  0.14944397     0.39800
C937        C  0.74191905  0.25021863  0.09352050     0.38900
C938        C  0.69664654  0.29945392  0.15547213     0.35800
C939        C  0.65001266  0.21501039  0.15968821     0.36500
C940        C  0.60450146  0.25675137  0.09122393     0.39800
N941        N  0.75068832  0.24032285  0.08054968    -0.38300
N942        N  0.66501535  0.19964381  0.09177590    -0.39900
N943        N  0.77396152  0.34837591  0.15967471    -0.37600
N944        N  0.68731942  0.30967536  0.16754251    -0.40000
N945        N  0.68124473  0.30301304  0.08495931    -0.39800
N946        N  0.59574928  0.26457754  0.07649517    -0.37400
N947        N  0.57289689  0.17084656  0.16864921    -0.38500
N948        N  0.65951709  0.20641465  0.17314601    -0.40100
C949        C  0.98059627  0.62812650  0.87436608    -0.05100
C950        C  0.99584332  0.62556487  0.89312005     0.09100
C951        C  0.98034853  0.60765297  0.91215135    -0.02400
C952        C  0.94978107  0.59038795  0.91147336    -0.00700
C953        C  0.93462932  0.59014076  0.89137067    -0.04300
C954        C  0.94999292  0.61026082  0.87335061     0.02700
C955        C  0.02766694  0.63741218  0.89114218     0.09500
C956        C  0.99596346  0.60526196  0.93162603     0.35400
C957        C  0.93478567  0.61079828  0.85280282     0.38900
C958        C  0.04809508  0.66167169  0.90444119    -0.04700
C959        C  0.07751604  0.66973533  0.90501193     0.02500
C960        C  0.08642644  0.65361175  0.89211954    -0.04300
C961        C  0.06626506  0.63047645  0.87770928    -0.00500
C962        C  0.03697946  0.62230689  0.87733324    -0.03100
C963        C  0.03858723  0.67782266  0.91783155     0.36200
C964        C  0.07557288  0.61489139  0.86321298     0.39800
C965        C  0.09824371  0.69363142  0.91964296     0.38900
C966        C  0.01618714  0.59769110  0.86322816     0.35800
C967        C  0.99664664  0.64758327  0.85532501     0.36500
C968        C  0.93395953  0.57197613  0.93113325     0.39800
N969        N  0.11478724  0.71265296  0.93136989    -0.38300
N970        N  0.03085064  0.69064653  0.92845794    -0.39900
N971        N  0.08274301  0.60233523  0.85158300    -0.37600
N972        N  0.99966072  0.57814208  0.85192147    -0.40000
N973        N  0.00846763  0.60330265  0.94708365    -0.39800
N974        N  0.92133388  0.55730365  0.94679283    -0.37400
N975        N  0.92265700  0.61115377  0.83638270    -0.38500
N976        N  0.00950565  0.66303243  0.84010841    -0.40100
C977        C  0.85953508  0.44388931  0.97862272    -0.05100
C978        C  0.88918457  0.45350800  0.98127577     0.09100
C979        C  0.90936292  0.47046373  0.96389464    -0.02400
C980        C  0.90016956  0.47920466  0.94435835    -0.00700
C981        C  0.87072576  0.47100466  0.94237012    -0.04300
C982        C  0.85026322  0.45236838  0.95916912     0.02700
C983        C  0.89847242  0.44615838  0.00309815     0.09500
C984        C  0.93955727  0.47922644  0.96639977     0.35400
C985        C  0.81946574  0.44137675  0.95633383     0.38900
C986        C  0.89878024  0.42039340  0.00433024    -0.04700
C987        C  0.89584095  0.40728184  0.02604042     0.02500
C988        C  0.89104987  0.41921627  0.04612178    -0.04300
C989        C  0.89638207  0.44771049  0.04530605    -0.00500
C990        C  0.90014475  0.46120970  0.02363760    -0.03100
C991        C  0.89960405  0.40622475  0.98320428     0.36200
C992        C  0.89572042  0.46223331  0.06629312     0.39800
C993        C  0.89676757  0.38107997  0.02773114     0.38900
C994        C  0.90279852  0.48923876  0.02219470     0.35800
C995        C  0.83855960  0.42551666  0.99620736     0.36500
C996        C  0.92120257  0.49732082  0.92680063     0.39800
N997        N  0.89763628  0.36025994  0.02918204    -0.38300
N998        N  0.90025753  0.39492934  0.96632569    -0.39900
N999        N  0.89541547  0.47395590  0.08303324    -0.37600
N1000       N  0.90486950  0.51156773  0.02095511    -0.40000
N1001       N  0.96361808  0.48606487  0.96842017    -0.39800
N1002       N  0.93801050  0.51169253  0.91277108    -0.37400
N1003       N  0.79495781  0.43269618  0.95409349    -0.38500
N1004       N  0.82192696  0.41098382  0.01027881    -0.40100
C1005       C  0.64409139  0.98032333  0.87227511    -0.05100
C1006       C  0.64520104  0.99442502  0.89324082     0.09100
C1007       C  0.63412480  0.97788854  0.91372377    -0.02400
C1008       C  0.61767945  0.94722977  0.91242653    -0.00700
C1009       C  0.61152155  0.93332493  0.89058380    -0.04300
C1010       C  0.62673180  0.94972212  0.87082271     0.02700
C1011       C  0.65028130  0.02438344  0.89244653     0.09500
C1012       C  0.63739342  0.99245950  0.93569922     0.35400
C1013       C  0.62275952  0.93514519  0.84871882     0.38900
C1014       C  0.62703918  0.02748394  0.88567526    -0.04700
C1015       C  0.63057100  0.05515039  0.88513571     0.02500
C1016       C  0.65752757  0.08027873  0.89147717    -0.04300
C1017       C  0.68080246  0.07704996  0.89839929    -0.00500
C1018       C  0.67709234  0.04915025  0.89895912    -0.03100
C1019       C  0.59917139  0.00188822  0.87940870     0.36200
C1020       C  0.70831000  0.10221025  0.90568876     0.39800
C1021       C  0.60642954  0.05754021  0.87736249     0.38900
C1022       C  0.70064553  0.04577199  0.90651575     0.35800
C1023       C  0.65894494  0.99743868  0.85188864     0.36500
C1024       C  0.60502051  0.93018399  0.93323781     0.39800
N1025       N  0.58710057  0.05933960  0.87124436    -0.38300
N1026       N  0.57704921  0.98139536  0.87446824    -0.39900
N1027       N  0.73030339  0.12221507  0.91154881    -0.37600
N1028       N  0.71936815  0.04300372  0.91266396    -0.40000
N1029       N  0.64006719  0.00419002  0.95320478    -0.39800
N1030       N  0.59533138  0.91672365  0.95000020    -0.37400
N1031       N  0.61954844  0.92342553  0.83111548    -0.38500
N1032       N  0.67105167  0.01109473  0.83566357    -0.40100
C1033       C  0.53427612  0.11224713  0.02600578    -0.05100
C1034       C  0.55138757  0.13312098  0.00909310     0.09100
C1035       C  0.55818429  0.16192300  0.01157625    -0.02400
C1036       C  0.54790044  0.16995025  0.03077709    -0.00700
C1037       C  0.53211765  0.14960878  0.04880714    -0.04300
C1038       C  0.52492588  0.12039991  0.04595084     0.02700
C1039       C  0.56277612  0.12566257  0.98832705     0.09500
C1040       C  0.57630747  0.18362608  0.99431480     0.35400
C1041       C  0.50825677  0.09852549  0.06343190     0.38900
C1042       C  0.55139671  0.12524211  0.96621178    -0.04700
C1043       C  0.56833414  0.13002869  0.94619352     0.02500
C1044       C  0.59598640  0.13336805  0.94819655    -0.04300
C1045       C  0.60470665  0.12834658  0.96992715    -0.00500
C1046       C  0.58861431  0.12546598  0.99009781    -0.03100
C1047       C  0.52321119  0.12221050  0.96436263     0.36200
C1048       C  0.63040506  0.12652231  0.97153963     0.39800
C1049       C  0.55828859  0.13421702  0.92408785     0.38900
C1050       C  0.59959513  0.12429709  0.01277138     0.35800
C1051       C  0.52641809  0.08238000  0.02284784     0.36500
C1052       C  0.55324917  0.19920382  0.03121273     0.39800
N1053       N  0.55000315  0.13769355  0.90663262    -0.38300
N1054       N  0.50067140  0.11965994  0.96292417    -0.39900
N1055       N  0.65077821  0.12483556  0.97279052    -0.37600
N1056       N  0.60830410  0.12339119  0.03090115    -0.40000
N1057       N  0.59076659  0.20082588  0.98056001    -0.39800
N1058       N  0.55763555  0.22255156  0.03128219    -0.37400
N1059       N  0.49489784  0.08097072  0.07729638    -0.38500
N1060       N  0.52012045  0.05853873  0.02032497    -0.40100
C1061       C  0.73944768  0.21601658  0.99331221    -0.05100
C1062       C  0.76865416  0.22382051  0.99155369     0.09100
C1063       C  0.77806489  0.21620839  0.97146775    -0.02400
C1064       C  0.75890419  0.20278865  0.95243450    -0.00700
C1065       C  0.73044162  0.19773159  0.95324422    -0.04300
C1066       C  0.72054282  0.20346990  0.97419874     0.02700
C1067       C  0.79013421  0.24502943  0.00879782     0.09500
C1068       C  0.80808950  0.22412697  0.96987593     0.35400
C1069       C  0.69141994  0.19825578  0.97591742     0.38900
C1070       C  0.79538292  0.23565580  0.03002356    -0.04700
C1071       C  0.80978138  0.25578746  0.04836335     0.02500
C1072       C  0.81861676  0.28530106  0.04549275    -0.04300
C1073       C  0.81530441  0.29484447  0.02346922    -0.00500
C1074       C  0.80160299  0.27486586  0.00516982    -0.03100
C1075       C  0.78471480  0.20509994  0.03324391     0.36200
C1076       C  0.82399573  0.32488450  0.01979581     0.39800
C1077       C  0.81276464  0.24551976  0.07079229     0.38900
C1078       C  0.79770594  0.28481721  0.98286184     0.35800
C1079       C  0.72941498  0.22300826  0.01428090     0.36500
C1080       C  0.76947023  0.19667497  0.93140328     0.39800
N1081       N  0.81489928  0.23726811  0.08875202    -0.38300
N1082       N  0.77626985  0.18069578  0.03571729    -0.39900
N1083       N  0.83008055  0.34847110  0.01628910    -0.37600
N1084       N  0.79482107  0.29293426  0.96510386    -0.40000
N1085       N  0.83213124  0.23065632  0.96868501    -0.39800
N1086       N  0.77805925  0.19187351  0.91466136    -0.37400
N1087       N  0.66854891  0.19486013  0.97772289    -0.38500
N1088       N  0.72124191  0.22857042  0.03087874    -0.40100
C1089       C  0.76593657  0.31723518  0.88730103    -0.05100
C1090       C  0.76928999  0.32595285  0.86381807     0.09100
C1091       C  0.75678411  0.30471039  0.84610347    -0.02400
C1092       C  0.74012717  0.27487066  0.85190658    -0.00700
C1093       C  0.73578016  0.26628546  0.87544089    -0.04300
C1094       C  0.74900125  0.28752910  0.89309060     0.02700
C1095       C  0.78354811  0.35760886  0.85837904     0.09500
C1096       C  0.76033100  0.31369839  0.82201366     0.35400
C1097       C  0.74407905  0.27885491  0.91730746     0.38900
C1098       C  0.81411125  0.37614063  0.85950027    -0.04700
C1099       C  0.82695787  0.40656657  0.86050278     0.02500
C1100       C  0.80918254  0.41838101  0.86068094    -0.04300
C1101       C  0.77893827  0.40003321  0.85716623    -0.00500
C1102       C  0.76614722  0.36968132  0.85583440    -0.03100
C1103       C  0.83210475  0.36379367  0.86122684     0.36200
C1104       C  0.76085066  0.41235149  0.85601830     0.39800
C1105       C  0.85819420  0.42554751  0.86340563     0.38900
C1106       C  0.73485406  0.35073770  0.85338419     0.35800
C1107       C  0.77903319  0.33900854  0.90557812     0.36500
C1108       C  0.72652492  0.25310381  0.83373774     0.39800
N1109       N  0.88308634  0.44081161  0.86575260    -0.38300
N1110       N  0.84651981  0.35399986  0.86269791    -0.39900
N1111       N  0.74638648  0.42213081  0.85505232    -0.37600
N1112       N  0.70990663  0.33558847  0.85134692    -0.40000
N1113       N  0.76310986  0.32096913  0.80280738    -0.39800
N1114       N  0.71566776  0.23584464  0.81914989    -0.37400
N1115       N  0.73987722  0.27192359  0.93661133    -0.38500
N1116       N  0.78959223  0.35647273  0.92005493    -0.40100
C1117       C  0.37977088  0.34194501  0.90319300    -0.05100
C1118       C  0.38102583  0.36397177  0.88924155     0.09100
C1119       C  0.40028435  0.37489748  0.87016347    -0.02400
C1120       C  0.41992869  0.36575276  0.86630451    -0.00700
C1121       C  0.42012569  0.34527164  0.88128755    -0.04300
C1122       C  0.39911388  0.33237545  0.89905577     0.02700
C1123       C  0.36606711  0.37935139  0.89658141     0.09500
C1124       C  0.40102979  0.39689537  0.85533218     0.35400
C1125       C  0.39834848  0.31029561  0.91373073     0.38900
C1126       C  0.38012790  0.40251372  0.91260328    -0.04700
C1127       C  0.37029232  0.42166418  0.91576192     0.02500
C1128       C  0.34666410  0.41812784  0.90262938    -0.04300
C1129       C  0.32999923  0.39256095  0.88928369    -0.00500
C1130       C  0.34001401  0.37341283  0.88588900    -0.03100
C1131       C  0.40569855  0.40755179  0.92500403     0.36200
C1132       C  0.30293902  0.38628170  0.87884188     0.39800
C1133       C  0.38424423  0.44462396  0.93295542     0.38900
C1134       C  0.32432697  0.34835805  0.87073750     0.35800
C1135       C  0.35967294  0.33035758  0.92254188     0.36500
C1136       C  0.44070306  0.37825556  0.84738850     0.39800
N1137       N  0.39546811  0.46213042  0.94731162    -0.38300
N1138       N  0.42606966  0.41164722  0.93497631    -0.39900
N1139       N  0.28118982  0.38112908  0.87066821    -0.37600
N1140       N  0.31184152  0.32831335  0.85865101    -0.40000
N1141       N  0.40153110  0.41443107  0.84356274    -0.39800
N1142       N  0.45722656  0.38832537  0.83228469    -0.37400
N1143       N  0.39761458  0.29254374  0.92536574    -0.38500
N1144       N  0.34370478  0.32121483  0.93805502    -0.40100
C1145       C  0.47960678  0.24549118  0.01661250    -0.05100
C1146       C  0.45085400  0.23088543  0.00797490     0.09100
C1147       C  0.42857890  0.20674082  0.02023604    -0.02400
C1148       C  0.43531024  0.19633971  0.04032875    -0.00700
C1149       C  0.46423958  0.21056288  0.04858667    -0.04300
C1150       C  0.48616299  0.23574808  0.03697319     0.02700
C1151       C  0.44506862  0.24057436  0.98528760     0.09500
C1152       C  0.39881448  0.19266082  0.01209805     0.35400
C1153       C  0.51559691  0.25216853  0.04618265     0.38900
C1154       C  0.44296393  0.22545954  0.96459952    -0.04700
C1155       C  0.44585378  0.23863933  0.94281609     0.02500
C1156       C  0.45181743  0.26728471  0.94165346    -0.04300
C1157       C  0.45077162  0.28110551  0.96211634    -0.00500
C1158       C  0.44694033  0.26755029  0.98388736    -0.03100
C1159       C  0.44007597  0.19732799  0.96575881     0.36200
C1160       C  0.45564771  0.31008683  0.96090364     0.39800
C1161       C  0.44438591  0.22345261  0.92156635     0.38900
C1162       C  0.44696405  0.28218289  0.00502530     0.35800
C1163       C  0.50270778  0.27041741  0.00425257     0.36500
C1164       C  0.41279768  0.17029313  0.05182862     0.39800
N1165       N  0.44321241  0.21140406  0.90457189    -0.38300
N1166       N  0.43778815  0.17488141  0.96668741    -0.39900
N1167       N  0.45950786  0.33320223  0.95995612    -0.37600
N1168       N  0.44699367  0.29379773  0.02193934    -0.40000
N1169       N  0.37503916  0.18155554  0.00561621    -0.39800
N1170       N  0.39489689  0.14938671  0.06095532    -0.37400
N1171       N  0.53903946  0.26538078  0.05351090    -0.38500
N1172       N  0.52104818  0.29031587  0.99440523    -0.40100
C1173       C  0.64331833  0.40879399  0.86153212    -0.05100
C1174       C  0.65525190  0.43907697  0.86215549     0.09100
C1175       C  0.63674013  0.44999969  0.86193823    -0.02400
C1176       C  0.60628501  0.43060697  0.86276318    -0.00700
C1177       C  0.59446220  0.40030734  0.86426139    -0.04300
C1178       C  0.61303235  0.38946385  0.86280349     0.02700
C1179       C  0.68705248  0.45882234  0.86647172     0.09500
C1180       C  0.64915372  0.48116682  0.86226267     0.35400
C1181       C  0.60105451  0.35836575  0.86341105     0.38900
C1182       C  0.70671183  0.47208286  0.84785927    -0.04700
C1183       C  0.73695975  0.48638795  0.85189410     0.02500
C1184       C  0.74737912  0.48749565  0.87456263    -0.04300
C1185       C  0.72769677  0.47556074  0.89332563    -0.00500
C1186       C  0.69763214  0.46137627  0.88929850    -0.03100
C1187       C  0.69568035  0.46974027  0.82450782     0.36200
C1188       C  0.73825932  0.47647973  0.91669966     0.39800
C1189       C  0.75719594  0.49814046  0.83261174     0.38900
C1190       C  0.67742898  0.44793516  0.90850728     0.35800
C1191       C  0.66237754  0.39755106  0.86093176     0.36500
C1192       C  0.58735510  0.44195861  0.86387037     0.39800
N1193       N  0.77336615  0.50737610  0.81722667    -0.38300
N1194       N  0.68676578  0.46783976  0.80589140    -0.39900
N1195       N  0.74641748  0.47683785  0.93535142    -0.37600
N1196       N  0.66136633  0.43708916  0.92381226    -0.40000
N1197       N  0.65914251  0.50605471  0.86256258    -0.39800
N1198       N  0.57227862  0.45105055  0.86474326    -0.37400
N1199       N  0.59167017  0.33360209  0.86395707    -0.38500
N1200       N  0.67751250  0.38851632  0.86051953    -0.40100
C1201       C  0.53683301  0.23149187  0.88230333    -0.05100
C1202       C  0.54674714  0.23026106  0.85991992     0.09100
C1203       C  0.54116032  0.24323878  0.84106871    -0.02400
C1204       C  0.52704727  0.25865895  0.84486130    -0.00700
C1205       C  0.51929109  0.26186475  0.86761124    -0.04300
C1206       C  0.52395736  0.24789514  0.88627382     0.02700
C1207       C  0.56694533  0.21935609  0.85751672     0.09500
C1208       C  0.55109681  0.24176980  0.81802781     0.35400
C1209       C  0.51763565  0.25208278  0.90993634     0.38900
C1210       C  0.55621420  0.18957372  0.85388950    -0.04700
C1211       C  0.57473251  0.17873401  0.85692445     0.02500
C1212       C  0.60362034  0.19741174  0.86491435    -0.04300
C1213       C  0.61482888  0.22764259  0.86662336    -0.00500
C1214       C  0.59668219  0.23852788  0.86256315    -0.03100
C1215       C  0.52570997  0.16989055  0.84844515     0.36200
C1216       C  0.64494000  0.24786647  0.87306079     0.39800
C1217       C  0.56343268  0.14808998  0.85321850     0.38900
C1218       C  0.60826064  0.26946674  0.86489631     0.35800
C1219       C  0.54136767  0.21704748  0.90154643     0.36500
C1220       C  0.52160886  0.27225107  0.82554833     0.39800
N1221       N  0.55431064  0.12360717  0.85020690    -0.38300
N1222       N  0.50130176  0.15416833  0.84424589    -0.39900
N1223       N  0.66876013  0.26481299  0.87816782    -0.37600
N1224       N  0.61760459  0.29414593  0.86673864    -0.40000
N1225       N  0.55910546  0.24062886  0.79964363    -0.39800
N1226       N  0.51712054  0.28292161  0.81007480    -0.37400
N1227       N  0.51327373  0.25537343  0.92903443    -0.38500
N1228       N  0.54494702  0.20540265  0.91679548    -0.40100
C1229       C  0.64100207  0.67214061  0.09312186    -0.05100
C1230       C  0.64397952  0.65688540  0.11166359     0.09100
C1231       C  0.63384122  0.65817264  0.13393804    -0.02400
C1232       C  0.61770909  0.67148321  0.13694963    -0.00700
C1233       C  0.61061781  0.68253040  0.11757455    -0.04300
C1234       C  0.62434686  0.68506120  0.09608877     0.02700
C1235       C  0.65287535  0.63540301  0.10721237     0.09500
C1236       C  0.63774715  0.64351885  0.15333582     0.35400
C1237       C  0.61995321  0.69933418  0.07674540     0.38900
C1238       C  0.68038950  0.64114721  0.11420152    -0.04700
C1239       C  0.68638543  0.61872027  0.11376599     0.02500
C1240       C  0.66482823  0.59038286  0.10623925    -0.04300
C1241       C  0.63788323  0.58525120  0.09796399    -0.00500
C1242       C  0.63198507  0.60763034  0.09847431    -0.03100
C1243       C  0.70207632  0.66988622  0.12264957     0.36200
C1244       C  0.61577406  0.55678806  0.08921926     0.39800
C1245       C  0.71397409  0.62437804  0.12262109     0.38900
C1246       C  0.60375528  0.60170271  0.09095453     0.35800
C1247       C  0.65342653  0.67273711  0.07067352     0.36500
C1248       C  0.60707545  0.67252464  0.15985358     0.39800
N1249       N  0.73593767  0.62883198  0.12976303    -0.38300
N1250       N  0.71935907  0.69283613  0.12940993    -0.39900
N1251       N  0.59774251  0.53426265  0.08226558    -0.37600
N1252       N  0.58129340  0.59706022  0.08496506    -0.40000
N1253       N  0.64074237  0.63168525  0.16875678    -0.39800
N1254       N  0.59878529  0.67343882  0.17817517    -0.37400
N1255       N  0.61687191  0.71109199  0.06132364    -0.38500
N1256       N  0.66339423  0.67313717  0.05278613    -0.40100
C1257       C  0.74248881  0.53821855  0.00307850    -0.05100
C1258       C  0.77257225  0.55814948  0.00558876     0.09100
C1259       C  0.78325355  0.57538853  0.02577337    -0.02400
C1260       C  0.76426339  0.57075364  0.04441616    -0.00700
C1261       C  0.73442306  0.54794905  0.04321867    -0.04300
C1262       C  0.72337818  0.53354228  0.02148897     0.02700
C1263       C  0.79277925  0.55946966  0.98725078     0.09500
C1264       C  0.81403556  0.59726380  0.02756478     0.35400
C1265       C  0.69244324  0.51349184  0.01766165     0.38900
C1266       C  0.79642840  0.57459057  0.96636706    -0.04700
C1267       C  0.80960813  0.57008677  0.94699460     0.02500
C1268       C  0.81985349  0.55100902  0.94872960    -0.04300
C1269       C  0.81915747  0.53861602  0.97048277    -0.00500
C1270       C  0.80508168  0.54228605  0.98953988    -0.03100
C1271       C  0.78494478  0.59333134  0.96451663     0.36200
C1272       C  0.83244088  0.52156266  0.97321672     0.39800
C1273       C  0.81040789  0.58317144  0.92485807     0.38900
C1274       C  0.80146431  0.52669649  0.01099334     0.35800
C1275       C  0.73125201  0.52149601  0.98173394     0.36500
C1276       C  0.77598670  0.58922030  0.06482811     0.39800
N1277       N  0.81091949  0.59355565  0.90718430    -0.38300
N1278       N  0.77570967  0.60824839  0.96322352    -0.39900
N1279       N  0.84327042  0.50825359  0.97592419    -0.37600
N1280       N  0.79845958  0.51399256  0.02796102    -0.40000
N1281       N  0.83861067  0.61469284  0.02895498    -0.39800
N1282       N  0.78551961  0.60398939  0.08107430    -0.37400
N1283       N  0.66788612  0.49738202  0.01429644    -0.38500
N1284       N  0.72214442  0.50811391  0.96478184    -0.40100
C1285       C  0.59196478  0.47635325  0.01099869    -0.05100
C1286       C  0.57255564  0.44603054  0.00854802     0.09100
C1287       C  0.56577026  0.42786678  0.02807898    -0.02400
C1288       C  0.58038071  0.43951781  0.04931204    -0.00700
C1289       C  0.60136394  0.46959390  0.05137842    -0.04300
C1290       C  0.60590779  0.48821053  0.03255020     0.02700
C1291       C  0.56227061  0.43239320  0.98502737     0.09500
C1292       C  0.54488921  0.39683856  0.02587903     0.35400
C1293       C  0.62658641  0.51923231  0.03480090     0.38900
C1294       C  0.57735782  0.42123328  0.97355970    -0.04700
C1295       C  0.56568629  0.40424565  0.95331580     0.02500
C1296       C  0.53919691  0.39895407  0.94393329    -0.04300
C1297       C  0.52503502  0.41165181  0.95451891    -0.00500
C1298       C  0.53640325  0.42812367  0.97519740    -0.03100
C1299       C  0.60474649  0.42683231  0.98291223     0.36200
C1300       C  0.49819335  0.40668225  0.94463339     0.39800
C1301       C  0.58091670  0.39194278  0.94229949     0.38900
C1302       C  0.52121207  0.44007179  0.98670803     0.35800
C1303       C  0.59903563  0.49500656  0.99092627     0.36500
C1304       C  0.57460045  0.42031325  0.06884659     0.39800
N1305       N  0.59316220  0.38212366  0.93372922    -0.38300
N1306       N  0.62663042  0.43137273  0.99031408    -0.39900
N1307       N  0.47676287  0.40252560  0.93656267    -0.37600
N1308       N  0.50914869  0.44968006  0.99592765    -0.40000
N1309       N  0.52824492  0.37211224  0.02403303    -0.39800
N1310       N  0.57005247  0.40495926  0.08437464    -0.37400
N1311       N  0.64310168  0.54398714  0.03663526    -0.38500
N1312       N  0.60478658  0.50982516  0.97483182    -0.40100
C1313       C  0.59782539  0.36262714  0.12226000    -0.05100
C1314       C  0.57757121  0.35565879  0.14032705     0.09100
C1315       C  0.57847273  0.37783701  0.15371934    -0.02400
C1316       C  0.59876146  0.40714204  0.14834506    -0.00700
C1317       C  0.61753919  0.41425997  0.12903418    -0.04300
C1318       C  0.61740597  0.39184487  0.11628468     0.02700
C1319       C  0.55331731  0.32498878  0.14303256     0.09500
C1320       C  0.55767054  0.37039221  0.17235514     0.35400
C1321       C  0.63538508  0.39850458  0.09571789     0.38900
C1322       C  0.55783809  0.30503686  0.15494509    -0.04700
C1323       C  0.53832420  0.27501319  0.15161064     0.02500
C1324       C  0.51538080  0.26534946  0.13550100    -0.04300
C1325       C  0.50890491  0.28511144  0.12587482    -0.00500
C1326       C  0.52762827  0.31502603  0.13004653    -0.03100
C1327       C  0.58380937  0.31545949  0.16890645     0.36200
C1328       C  0.48412179  0.27472747  0.11045389     0.39800
C1329       C  0.54322968  0.25417937  0.16310473     0.38900
C1330       C  0.52170903  0.33566920  0.11955575     0.35800
C1331       C  0.59743750  0.33956175  0.10903332     0.36500
C1332       C  0.59994690  0.42985384  0.16257837     0.39800
N1333       N  0.54693926  0.23747231  0.17235230    -0.38300
N1334       N  0.60466605  0.32381316  0.17989295    -0.39900
N1335       N  0.46437174  0.26640409  0.09813033    -0.37600
N1336       N  0.51686503  0.35212614  0.11134076    -0.40000
N1337       N  0.54092319  0.36439245  0.18711337    -0.39800
N1338       N  0.60065900  0.44770045  0.17415539    -0.37400
N1339       N  0.64947465  0.40377167  0.07918583    -0.38500
N1340       N  0.59714946  0.32113462  0.09859070    -0.40100
C1341       C  0.76014848  0.46684741  0.14856590    -0.05100
C1342       C  0.78220171  0.47155357  0.13283333     0.09100
C1343       C  0.78964191  0.49132048  0.11438857    -0.02400
C1344       C  0.77324806  0.50412970  0.11034374    -0.00700
C1345       C  0.74947873  0.49750500  0.12486577    -0.04300
C1346       C  0.74359638  0.47961324  0.14450177     0.02700
C1347       C  0.79332613  0.45154558  0.13244594     0.09500
C1348       C  0.81294051  0.49687241  0.09858769     0.35400
C1349       C  0.71878387  0.47202062  0.15915814     0.38900
C1350       C  0.77678044  0.42465665  0.12084550    -0.04700
C1351       C  0.78857540  0.40737938  0.11664164     0.02500
C1352       C  0.81746122  0.41711644  0.12362212    -0.04300
C1353       C  0.83361720  0.44364796  0.13607076    -0.00500
C1354       C  0.82136442  0.46059201  0.14071063    -0.03100
C1355       C  0.74797130  0.41544759  0.11210790     0.36200
C1356       C  0.86367132  0.45495484  0.14231718     0.39800
C1357       C  0.77081305  0.37989223  0.10451303     0.38900
C1358       C  0.83792985  0.48791213  0.15319838     0.35800
C1359       C  0.75347191  0.44745919  0.16808357     0.36500
C1360       C  0.78002826  0.52294895  0.09043196     0.39800
N1361       N  0.75609933  0.35825599  0.09464498    -0.38300
N1362       N  0.72509709  0.40822315  0.10506878    -0.39900
N1363       N  0.88782268  0.46446439  0.14707620    -0.37600
N1364       N  0.85108389  0.50969128  0.16321871    -0.40000
N1365       N  0.83152036  0.50125551  0.08602959    -0.39800
N1366       N  0.78581023  0.53776723  0.07436150    -0.37400
N1367       N  0.69882608  0.46576260  0.17071964    -0.38500
N1368       N  0.74829832  0.43200800  0.18366119    -0.40100
C1369       C  0.70120358  0.16938019  0.77702439    -0.05100
C1370       C  0.67514244  0.15631059  0.76421464     0.09100
C1371       C  0.64824159  0.14075178  0.77575615    -0.02400
C1372       C  0.64719673  0.13995141  0.80021579    -0.00700
C1373       C  0.67337036  0.15459737  0.81346335    -0.04300
C1374       C  0.70043392  0.16825873  0.80151928     0.02700
C1375       C  0.67569817  0.15979539  0.73849373     0.09500
C1376       C  0.62151215  0.12577269  0.76227916     0.35400
C1377       C  0.72765655  0.18063238  0.81417241     0.38900
C1378       C  0.67352257  0.13794468  0.72371182    -0.04700
C1379       C  0.67109480  0.13993680  0.69951353     0.02500
C1380       C  0.67104340  0.16392950  0.69004851    -0.04300
C1381       C  0.67406101  0.18620947  0.70481593    -0.00500
C1382       C  0.67635535  0.18411485  0.72901540    -0.03100
C1383       C  0.67329131  0.11320426  0.73350930     0.36200
C1384       C  0.67530820  0.21150926  0.69507061     0.39800
C1385       C  0.66734326  0.11665375  0.68447041     0.38900
C1386       C  0.67905023  0.20677433  0.74427954     0.35800
C1387       C  0.72884042  0.18402500  0.76487292     0.36500
C1388       C  0.61888995  0.12441606  0.81135063     0.39800
N1389       N  0.66418417  0.09798554  0.67251670    -0.38300
N1390       N  0.67313524  0.09348676  0.74134724    -0.39900
N1391       N  0.67639676  0.23172252  0.68728163    -0.37600
N1392       N  0.68124358  0.22479532  0.75654196    -0.40000
N1393       N  0.60029849  0.11372186  0.75145239    -0.39800
N1394       N  0.59620346  0.11175745  0.82002798    -0.37400
N1395       N  0.74940170  0.19048448  0.82420978    -0.38500
N1396       N  0.75086467  0.19564032  0.75515255    -0.40100
C1397       C  0.83329825  0.35523232  0.27001741    -0.05100
C1398       C  0.85227278  0.34890827  0.25852749     0.09100
C1399       C  0.87188504  0.34471175  0.27132572    -0.02400
C1400       C  0.87269183  0.34699407  0.29569448    -0.00700
C1401       C  0.85381265  0.35352418  0.30733974    -0.04300
C1402       C  0.83415047  0.35774029  0.29438090     0.02700
C1403       C  0.85302188  0.34867463  0.23272772     0.09500
C1404       C  0.89139411  0.33828680  0.25929763     0.35400
C1405       C  0.81416589  0.36382384  0.30603363     0.38900
C1406       C  0.86930378  0.37513253  0.22079127    -0.04700
C1407       C  0.87003863  0.37544072  0.19637564     0.02500
C1408       C  0.85492183  0.34891839  0.18355655    -0.04300
C1409       C  0.83914176  0.32222120  0.19593386    -0.00500
C1410       C  0.83790962  0.32227401  0.22038767    -0.03100
C1411       C  0.88544244  0.40217405  0.23383716     0.36200
C1412       C  0.82473180  0.29443321  0.18388072     0.39800
C1413       C  0.88617633  0.40344058  0.18490306     0.38900
C1414       C  0.82107963  0.29511863  0.23298284     0.35800
C1415       C  0.81278074  0.35894865  0.25666267     0.36500
C1416       C  0.89357568  0.34342088  0.30863090     0.39800
N1417       N  0.89932952  0.42601578  0.17616004    -0.38300
N1418       N  0.89829752  0.42363372  0.24430908    -0.39900
N1419       N  0.81324401  0.27222773  0.17434498    -0.37600
N1420       N  0.80763284  0.27347522  0.24302615    -0.40000
N1421       N  0.90685726  0.33309248  0.24963850    -0.39800
N1422       N  0.91023395  0.34049237  0.31885349    -0.37400
N1423       N  0.79825566  0.36876337  0.31524305    -0.38500
N1424       N  0.79641019  0.36182312  0.24594775    -0.40100
C1425       C  0.80064356  0.27489219  0.48544819    -0.05100
C1426       C  0.77456602  0.24740294  0.48440116     0.09100
C1427       C  0.76313569  0.23452928  0.46252775    -0.02400
C1428       C  0.77607352  0.25031504  0.44188356    -0.00700
C1429       C  0.80015763  0.27932814  0.44308770    -0.04300
C1430       C  0.81322900  0.29093460  0.46494074     0.02700
C1431       C  0.75664354  0.23501261  0.50603312     0.09500
C1432       C  0.73703132  0.20572152  0.46135099     0.35400
C1433       C  0.83918799  0.31984494  0.46642746     0.38900
C1434       C  0.74034946  0.24675857  0.51402326    -0.04700
C1435       C  0.72434477  0.23674782  0.53480742     0.02500
C1436       C  0.72429152  0.21465644  0.54798539    -0.04300
C1437       C  0.74056216  0.20278774  0.53996001    -0.00500
C1438       C  0.75669336  0.21296270  0.51902004    -0.03100
C1439       C  0.74054342  0.26975629  0.50096503     0.36200
C1440       C  0.74011336  0.17963827  0.55288399     0.39800
C1441       C  0.70873193  0.25013069  0.54297981     0.38900
C1442       C  0.77360170  0.20104889  0.51092611     0.35800
C1443       C  0.81350862  0.28730821  0.50787545     0.36500
C1444       C  0.76317802  0.23734913  0.41961699     0.39800
N1445       N  0.69623975  0.26073515  0.54948018    -0.38300
N1446       N  0.74090270  0.28821206  0.49060989    -0.39900
N1447       N  0.73968507  0.16112226  0.56320801    -0.37600
N1448       N  0.78712878  0.19156010  0.50444599    -0.40000
N1449       N  0.71622641  0.18271249  0.46038662    -0.39800
N1450       N  0.75276394  0.22671168  0.40194147    -0.37400
N1451       N  0.85985215  0.34292783  0.46762982    -0.38500
N1452       N  0.82363875  0.29705495  0.52583599    -0.40100
C1453       C  0.83122224  0.52214928  0.72256673    -0.05100
C1454       C  0.85820578  0.53447135  0.73401460     0.09100
C1455       C  0.88393957  0.54580557  0.72091597    -0.02400
C1456       C  0.88278902  0.54491917  0.69641302    -0.00700
C1457       C  0.85575939  0.53352639  0.68464663    -0.04300
C1458       C  0.82993244  0.52209073  0.69808808     0.02700
C1459       C  0.85932455  0.53477591  0.76000433     0.09500
C1460       C  0.91171868  0.55830465  0.73276351     0.35400
C1461       C  0.80166566  0.50943675  0.68705956     0.38900
C1462       C  0.86431292  0.51508683  0.77181414    -0.04700
C1463       C  0.86487956  0.51490375  0.79628845     0.02500
C1464       C  0.85894865  0.53350362  0.80926620    -0.04300
C1465       C  0.85402571  0.55331763  0.79728776    -0.00500
C1466       C  0.85465608  0.55420040  0.77277766    -0.03100
C1467       C  0.86808597  0.49439637  0.75868333     0.36200
C1468       C  0.84905980  0.57341610  0.81006133     0.39800
C1469       C  0.87104418  0.49498495  0.80785152     0.38900
C1470       C  0.85047707  0.57511305  0.76058765     0.35800
C1471       C  0.80461248  0.50881665  0.73613781     0.36500
C1472       C  0.90973669  0.55597644  0.68362251     0.39800
N1473       N  0.87636979  0.47923601  0.81677579    -0.38300
N1474       N  0.87099233  0.47786128  0.74818954    -0.39900
N1475       N  0.84502022  0.58942200  0.82020279    -0.37600
N1476       N  0.84713573  0.59174801  0.75079948    -0.40000
N1477       N  0.93385262  0.56814316  0.74219927    -0.39800
N1478       N  0.93128268  0.56457503  0.67356393    -0.37400
N1479       N  0.77897819  0.49953697  0.67856103    -0.38500
N1480       N  0.78349240  0.49811802  0.74705552    -0.40100
C1481       C  0.90223943  0.44897982  0.47012902    -0.05100
C1482       C  0.88070338  0.44356145  0.48654337     0.09100
C1483       C  0.85243010  0.41894194  0.48419623    -0.02400
C1484       C  0.84512169  0.40063958  0.46478958    -0.00700
C1485       C  0.86570662  0.40774460  0.44672134    -0.04300
C1486       C  0.89485206  0.43121485  0.45014744     0.02700
C1487       C  0.88659387  0.46433158  0.50581561     0.09500
C1488       C  0.83025460  0.41310766  0.50128891     0.35400
C1489       C  0.91722832  0.43785906  0.43307629     0.38900
C1490       C  0.87932895  0.48549978  0.50287842    -0.04700
C1491       C  0.87571378  0.49891791  0.52243694     0.02500
C1492       C  0.87877522  0.49066603  0.54509585    -0.04300
C1493       C  0.89043584  0.47267117  0.54763034    -0.00500
C1494       C  0.89406958  0.45939536  0.52793962    -0.03100
C1495       C  0.87375855  0.49200297  0.47972469     0.36200
C1496       C  0.89677594  0.46583764  0.57037378     0.39800
C1497       C  0.86847087  0.52087191  0.51905018     0.38900
C1498       C  0.90365386  0.43911396  0.53048306     0.35800
C1499       C  0.93175634  0.47333889  0.47358129     0.36500
C1500       C  0.81619685  0.37448936  0.46375443     0.39800
N1501       N  0.86287100  0.53847460  0.51609621    -0.38300
N1502       N  0.86931640  0.49707311  0.46122333    -0.39900
N1503       N  0.90178010  0.46021581  0.58846351    -0.37600
N1504       N  0.91134216  0.42297227  0.53246744    -0.40000
N1505       N  0.81221258  0.40833011  0.51455373    -0.39800
N1506       N  0.79309098  0.35377976  0.46307592    -0.37400
N1507       N  0.93520745  0.44315494  0.41957309    -0.38500
N1508       N  0.95532627  0.49271738  0.47642013    -0.40100
C1509       C  0.80543870  0.38629128  0.65479727    -0.05100
C1510       C  0.79681069  0.36496367  0.63733987     0.09100
C1511       C  0.80300171  0.37339348  0.61389788    -0.02400
C1512       C  0.81616676  0.40280478  0.60776354    -0.00700
C1513       C  0.82199354  0.42409611  0.62493784    -0.04300
C1514       C  0.81763579  0.41579240  0.64867390     0.02700
C1515       C  0.77680653  0.33343040  0.64255461     0.09500
C1516       C  0.79396993  0.35141377  0.59583488     0.35400
C1517       C  0.82383875  0.43699764  0.66678344     0.38900
C1518       C  0.74668199  0.32211490  0.64295990    -0.04700
C1519       C  0.72690317  0.29211551  0.63982763     0.02500
C1520       C  0.73719939  0.27339584  0.63555380    -0.04300
C1521       C  0.76717082  0.28419726  0.63846019    -0.00500
C1522       C  0.78695862  0.31427251  0.64211773    -0.03100
C1523       C  0.73613589  0.34169117  0.64518054     0.36200
C1524       C  0.77784855  0.26478104  0.63645587     0.39800
C1525       C  0.69604867  0.28077961  0.64158416     0.38900
C1526       C  0.81782244  0.32581130  0.64447805     0.35800
C1527       C  0.80062825  0.37756217  0.67897032     0.36500
C1528       C  0.82323434  0.41075984  0.58354790     0.39800
N1529       N  0.67175071  0.27289197  0.64385141    -0.38300
N1530       N  0.72786433  0.35739255  0.64695852    -0.39900
N1531       N  0.78633548  0.24923275  0.63499108    -0.37600
N1532       N  0.84245213  0.33505341  0.64662150    -0.40000
N1533       N  0.78651934  0.33385281  0.58148538    -0.39800
N1534       N  0.82866742  0.41683003  0.56417849    -0.37400
N1535       N  0.82863044  0.45386014  0.68124626    -0.38500
N1536       N  0.79692812  0.37056316  0.69826702    -0.40100
C1537       C  0.46767765  0.16534826  0.22410039    -0.05100
C1538       C  0.47748594  0.14877320  0.23504059     0.09100
C1539       C  0.48694807  0.13371158  0.22134959    -0.02400
C1540       C  0.48739033  0.13589338  0.19690764    -0.00700
C1541       C  0.47956339  0.15419438  0.18599433    -0.04300
C1542       C  0.46945074  0.16872047  0.19976189     0.02700
C1543       C  0.48042971  0.14965630  0.26096878     0.09500
C1544       C  0.49703070  0.11662586  0.23245558     0.35400
C1545       C  0.46264029  0.18870113  0.18922756     0.38900
C1546       C  0.46174723  0.12514471  0.27469791    -0.04700
C1547       C  0.46447527  0.12671223  0.29917253     0.02500
C1548       C  0.48510737  0.15320024  0.31011832    -0.04300
C1549       C  0.50273437  0.17803936  0.29624809    -0.00500
C1550       C  0.50136287  0.17589140  0.27186687    -0.03100
C1551       C  0.43906076  0.09863563  0.26367124     0.36200
C1552       C  0.52164934  0.20629045  0.30681063     0.39800
C1553       C  0.44444664  0.10167742  0.31305637     0.38900
C1554       C  0.52136447  0.20093879  0.25788257     0.35800
C1555       C  0.45658616  0.17972499  0.23808114     0.36500
C1556       C  0.49555400  0.11892811  0.18302272     0.39800
N1557       N  0.42817182  0.08167340  0.32397453    -0.38300
N1558       N  0.42089270  0.07748605  0.25490634    -0.39900
N1559       N  0.53630404  0.22919067  0.31480151    -0.37600
N1560       N  0.53720586  0.22086213  0.24668996    -0.40000
N1561       N  0.50501384  0.10295989  0.24133883    -0.39800
N1562       N  0.50194795  0.10531285  0.17193984    -0.37400
N1563       N  0.45738798  0.20492328  0.18112923    -0.38500
N1564       N  0.44788118  0.19123308  0.24932156    -0.40100
C1565       C  0.58613679  0.12277563  0.51906937    -0.05100
C1566       C  0.56268306  0.12698088  0.51695316     0.09100
C1567       C  0.55251813  0.13442954  0.53671935    -0.02400
C1568       C  0.56779300  0.14084039  0.55785810    -0.00700
C1569       C  0.59322152  0.13986066  0.55920995    -0.04300
C1570       C  0.60169426  0.12958947  0.54014986     0.02700
C1571       C  0.55405596  0.13139508  0.49347852     0.09500
C1572       C  0.52782904  0.13788101  0.53469470     0.35400
C1573       C  0.62792387  0.12866051  0.54156893     0.38900
C1574       C  0.53207347  0.10809092  0.48029852    -0.04700
C1575       C  0.52327177  0.11358549  0.45877868     0.02500
C1576       C  0.53631060  0.14244442  0.45067646    -0.04300
C1577       C  0.55906108  0.16556753  0.46366418    -0.00500
C1578       C  0.56793265  0.16000748  0.48484987    -0.03100
C1579       C  0.51825884  0.07869872  0.48914445     0.36200
C1580       C  0.57402352  0.19524768  0.45501610     0.39800
C1581       C  0.50005812  0.08982223  0.44553547     0.38900
C1582       C  0.59129386  0.18391202  0.49803040     0.35800
C1583       C  0.59548491  0.11354081  0.49903519     0.36500
C1584       C  0.55833829  0.14992468  0.57794533     0.39800
N1585       N  0.48151410  0.07087623  0.43494203    -0.38300
N1586       N  0.50728588  0.05524150  0.49625006    -0.39900
N1587       N  0.58599320  0.21887692  0.44815080    -0.37600
N1588       N  0.60986052  0.20286972  0.50859599    -0.40000
N1589       N  0.50822059  0.14076267  0.53300252    -0.39800
N1590       N  0.55104212  0.15716900  0.59411530    -0.37400
N1591       N  0.64896915  0.12815118  0.54274197    -0.38500
N1592       N  0.60279760  0.10601518  0.48304469    -0.40100
C1593       C  0.69511851  0.26401822  0.35114627    -0.05100
C1594       C  0.68537499  0.23423966  0.34994411     0.09100
C1595       C  0.70571621  0.22567910  0.34759832    -0.02400
C1596       C  0.73575178  0.24667115  0.34963251    -0.00700
C1597       C  0.74503717  0.27588765  0.35457574    -0.04300
C1598       C  0.72494710  0.28481983  0.35295025     0.02700
C1599       C  0.65408914  0.21263920  0.35455284     0.09500
C1600       C  0.69561255  0.19522232  0.34444972     0.35400
C1601       C  0.73481103  0.31542754  0.35297590     0.38900
C1602       C  0.63297043  0.20687581  0.33758990    -0.04700
C1603       C  0.60366823  0.19461840  0.34415597     0.02500
C1604       C  0.59557820  0.18825142  0.36782156    -0.04300
C1605       C  0.61611540  0.18996877  0.38395375    -0.00500
C1606       C  0.64540282  0.20261955  0.37744273    -0.03100
C1607       C  0.64183686  0.21509857  0.31365666     0.36200
C1608       C  0.60711820  0.17762324  0.40696597     0.39800
C1609       C  0.58232147  0.18953657  0.32659303     0.38900
C1610       C  0.66691934  0.20678311  0.39462580     0.35800
C1611       C  0.67436490  0.27318673  0.35235050     0.36500
C1612       C  0.75681798  0.23805033  0.34763968     0.39800
N1613       N  0.56543357  0.18518934  0.31233222    -0.38300
N1614       N  0.64900218  0.22167512  0.29457631    -0.39900
N1615       N  0.60056655  0.16726111  0.42521901    -0.37600
N1616       N  0.68406333  0.21008365  0.40831443    -0.40000
N1617       N  0.68753789  0.17089087  0.34195027    -0.39800
N1618       N  0.77368182  0.23124215  0.34581666    -0.37400
N1619       N  0.74174427  0.33958953  0.35227383    -0.38500
N1620       N  0.65793843  0.28061948  0.35342302    -0.40100
C1621       C  0.50779974  0.34495257  0.76727063    -0.05100
C1622       C  0.48166063  0.33706963  0.75562597     0.09100
C1623       C  0.45616822  0.32798776  0.76867999    -0.02400
C1624       C  0.45660309  0.32600057  0.79313075    -0.00700
C1625       C  0.48266795  0.33361478  0.80472384    -0.04300
C1626       C  0.50830163  0.34324760  0.79174152     0.02700
C1627       C  0.48071378  0.33733879  0.72954376     0.09500
C1628       C  0.42959760  0.32107434  0.75688225     0.35400
C1629       C  0.53520036  0.35130451  0.80357693     0.38900
C1630       C  0.46886100  0.31105101  0.71698607    -0.04700
C1631       C  0.46821464  0.31107257  0.69245578     0.02500
C1632       C  0.47971483  0.33756191  0.68012234    -0.04300
C1633       C  0.49101548  0.36385627  0.69284054    -0.00500
C1634       C  0.49152650  0.36369066  0.71740451    -0.03100
C1635       C  0.45754663  0.28387839  0.72941561     0.36200
C1636       C  0.50116756  0.39106021  0.68077466     0.39800
C1637       C  0.45635961  0.28369976  0.68008855     0.38900
C1638       C  0.50292681  0.39063506  0.73030045     0.35800
C1639       C  0.53420789  0.35492181  0.75402674     0.36500
C1640       C  0.43016595  0.31587093  0.80638010     0.39800
N1641       N  0.44674325  0.26168057  0.67047770    -0.38300
N1642       N  0.44845042  0.26221470  0.73934940    -0.39900
N1643       N  0.50926213  0.41278289  0.67118640    -0.37600
N1644       N  0.51201947  0.41209338  0.74064799    -0.40000
N1645       N  0.40849395  0.31571351  0.74737882    -0.39800
N1646       N  0.40904639  0.30766990  0.81694845    -0.37400
N1647       N  0.55667094  0.35762750  0.81294964    -0.38500
N1648       N  0.55530935  0.36307116  0.74344681    -0.40100
C1649       C  0.44827042  0.26729580  0.49732773    -0.05100
C1650       C  0.43929094  0.23774748  0.49915830     0.09100
C1651       C  0.42714161  0.22295844  0.52023024    -0.02400
C1652       C  0.42868421  0.23871895  0.54036573    -0.00700
C1653       C  0.44298178  0.26940148  0.53940868    -0.04300
C1654       C  0.44906826  0.28280076  0.51731393     0.02700
C1655       C  0.44729533  0.22386620  0.48051823     0.09500
C1656       C  0.41501319  0.19188446  0.52145528     0.35400
C1657       C  0.45619221  0.31253867  0.51521599     0.38900
C1658       C  0.47201876  0.22193780  0.48376641    -0.04700
C1659       C  0.48153403  0.21109895  0.46592182     0.02500
C1660       C  0.46681522  0.20261300  0.44428334    -0.04300
C1661       C  0.44143904  0.20373639  0.44131344    -0.00500
C1662       C  0.43167521  0.21418600  0.45944615    -0.03100
C1663       C  0.48826707  0.23196652  0.50540658     0.36200
C1664       C  0.42621591  0.19574488  0.41922191     0.39800
C1665       C  0.50645655  0.20853477  0.47019175     0.38900
C1666       C  0.40589037  0.21555548  0.45630738     0.35800
C1667       C  0.45879567  0.28227679  0.47531801     0.36500
C1668       C  0.41654342  0.22340305  0.56199794     0.39800
N1669       N  0.52635529  0.20668777  0.47406605    -0.38300
N1670       N  0.50117016  0.23999056  0.52265535    -0.39900
N1671       N  0.41417924  0.18951455  0.40154503    -0.37600
N1672       N  0.38532724  0.21668006  0.45378090    -0.40000
N1673       N  0.40541205  0.16708933  0.52234385    -0.39800
N1674       N  0.40665628  0.21106090  0.57921203    -0.37400
N1675       N  0.46142281  0.33610992  0.51350034    -0.38500
N1676       N  0.46725241  0.29421506  0.45775606    -0.40100
C1677       C  0.63032201  0.41904888  0.64026922    -0.05100
C1678       C  0.64990022  0.41882887  0.62425476     0.09100
C1679       C  0.63905662  0.39946319  0.60518887    -0.02400
C1680       C  0.60883949  0.38195681  0.60116622    -0.00700
C1681       C  0.58914267  0.38317927  0.61656405    -0.04300
C1682       C  0.60000663  0.40101586  0.63659397     0.02700
C1683       C  0.68201416  0.43999930  0.62646154     0.09500
C1684       C  0.65916572  0.39812262  0.58936027     0.35400
C1685       C  0.58002530  0.40036438  0.65369910     0.38900
C1686       C  0.69964574  0.43194341  0.63790998    -0.04700
C1687       C  0.73023889  0.44978285  0.63639322     0.02500
C1688       C  0.74349556  0.47595620  0.62338362    -0.04300
C1689       C  0.72567257  0.48512423  0.61360370    -0.00500
C1690       C  0.69505410  0.46708364  0.61505309    -0.03100
C1691       C  0.68619142  0.40466869  0.65048630     0.36200
C1692       C  0.73852232  0.51203264  0.60056484     0.39800
C1693       C  0.74801248  0.44081846  0.64795351     0.38900
C1694       C  0.67677483  0.47559840  0.60373781     0.35800
C1695       C  0.64146167  0.43818067  0.66031285     0.36500
C1696       C  0.59822437  0.36400680  0.58039464     0.39800
N1697       N  0.76209490  0.43360705  0.65724639    -0.38300
N1698       N  0.67543522  0.38291540  0.66052341    -0.39900
N1699       N  0.74867068  0.53348510  0.59015652    -0.37600
N1700       N  0.66205284  0.48220019  0.59469627    -0.40000
N1701       N  0.67524604  0.39699591  0.57682650    -0.39800
N1702       N  0.58971169  0.34976248  0.56380054    -0.37400
N1703       N  0.56422847  0.39972156  0.66756183    -0.38500
N1704       N  0.65038117  0.45347799  0.67630184    -0.40100
C1705       C  0.55825707  0.20691756  0.65074281    -0.05100
C1706       C  0.55980880  0.22862724  0.63628377     0.09100
C1707       C  0.58348144  0.24386031  0.62094194    -0.02400
C1708       C  0.60420562  0.23585140  0.61858578    -0.00700
C1709       C  0.60193451  0.21287658  0.63215392    -0.04300
C1710       C  0.57948274  0.19933059  0.64893129     0.02700
C1711       C  0.53589921  0.23470770  0.63550643     0.09500
C1712       C  0.58599031  0.26744334  0.60704882     0.35400
C1713       C  0.57855606  0.17802134  0.66466661     0.38900
C1714       C  0.53772492  0.25732790  0.64905865    -0.04700
C1715       C  0.52113817  0.26952504  0.64300620     0.02500
C1716       C  0.50304315  0.25938054  0.62307804    -0.04300
C1717       C  0.49940618  0.23501843  0.61083597    -0.00500
C1718       C  0.51512378  0.22220397  0.61752607    -0.03100
C1719       C  0.55802262  0.26916286  0.66832483     0.36200
C1720       C  0.48096084  0.22409230  0.59042186     0.39800
C1721       C  0.52513370  0.29448132  0.65583259     0.38900
C1722       C  0.51106782  0.19699829  0.60508659     0.35800
C1723       C  0.53459740  0.19218816  0.66721210     0.36500
C1724       C  0.62689792  0.25053440  0.60123781     0.39800
N1725       N  0.52852996  0.31450752  0.66600075    -0.38300
N1726       N  0.57417724  0.27853847  0.68374538    -0.39900
N1727       N  0.46680289  0.21510952  0.57385027    -0.37600
N1728       N  0.50741304  0.17669435  0.59521971    -0.40000
N1729       N  0.58784998  0.28625128  0.59612347    -0.39800
N1730       N  0.64500057  0.26246897  0.58745574    -0.37400
N1731       N  0.57805871  0.16121630  0.67732805    -0.38500
N1732       N  0.51571494  0.18047145  0.68038940    -0.40100
C1733       C  0.64862756  0.51977248  0.22295062    -0.05100
C1734       C  0.67404422  0.52637668  0.23507587     0.09100
C1735       C  0.69896908  0.53227320  0.22254463    -0.02400
C1736       C  0.69869391  0.53215827  0.19798795    -0.00700
C1737       C  0.67324967  0.52570648  0.18574027    -0.04300
C1738       C  0.64825908  0.51966912  0.19844529     0.02700
C1739       C  0.67452294  0.52771569  0.26111061     0.09500
C1740       C  0.72479710  0.53804351  0.23498306     0.35400
C1741       C  0.62234720  0.51432070  0.18639369     0.38900
C1742       C  0.67154217  0.50439515  0.27431800    -0.04700
C1743       C  0.67046826  0.50508075  0.29881419     0.02500
C1744       C  0.67261266  0.52926887  0.31032228    -0.04300
C1745       C  0.67432764  0.55196875  0.29698488    -0.00500
C1746       C  0.67598241  0.55153234  0.27253556    -0.03100
C1747       C  0.66931031  0.47954936  0.26262932     0.36200
C1748       C  0.67132844  0.57423416  0.30810380     0.39800
C1749       C  0.66723245  0.48083387  0.31211684     0.38900
C1750       C  0.67869289  0.57541281  0.25901426     0.35800
C1751       C  0.62269453  0.51281040  0.23583757     0.36500
C1752       C  0.72454337  0.53809538  0.18552887     0.39800
N1753       N  0.66481626  0.46152767  0.32266525    -0.38300
N1754       N  0.66762019  0.45977991  0.25327633    -0.39900
N1755       N  0.66788397  0.59161957  0.31644151    -0.37600
N1756       N  0.68079712  0.59438600  0.24817398    -0.40000
N1757       N  0.74530277  0.54234158  0.24488295    -0.39800
N1758       N  0.74548203  0.54303575  0.17598773    -0.37400
N1759       N  0.60163118  0.51003044  0.17685022    -0.38500
N1760       N  0.60211347  0.50726869  0.24625463    -0.40100
C1761       C  0.78510386  0.54138979  0.50939279    -0.05100
C1762       C  0.78931727  0.56935143  0.50920909     0.09100
C1763       C  0.80452060  0.58880016  0.52759612    -0.02400
C1764       C  0.81440205  0.57986847  0.54669302    -0.00700
C1765       C  0.80985093  0.55150689  0.54714054    -0.04300
C1766       C  0.79620415  0.53288443  0.52767324     0.02700
C1767       C  0.77628181  0.57713338  0.48982667     0.09500
C1768       C  0.80920590  0.61772361  0.52708445     0.35400
C1769       C  0.79371273  0.50489208  0.52593588     0.38900
C1770       C  0.74766643  0.57100649  0.49196394    -0.04700
C1771       C  0.73181546  0.56916570  0.47192458     0.02500
C1772       C  0.74401484  0.57191117  0.44962603    -0.04300
C1773       C  0.77429990  0.58327651  0.44793229    -0.00500
C1774       C  0.79030301  0.58555119  0.46807285    -0.03100
C1775       C  0.73387233  0.56441781  0.51460051     0.36200
C1776       C  0.78868541  0.59055469  0.42551370     0.39800
C1777       C  0.70283369  0.56408648  0.47421331     0.38900
C1778       C  0.82061777  0.59444948  0.46627505     0.35800
C1779       C  0.76792384  0.52063718  0.49121820     0.36500
C1780       C  0.82817120  0.59966660  0.56610424     0.39800
N1781       N  0.67981849  0.56030740  0.47612031    -0.38300
N1782       N  0.72294175  0.55907907  0.53269980    -0.39900
N1783       N  0.80022168  0.59620494  0.40764991    -0.37600
N1784       N  0.84481156  0.60155072  0.46486965    -0.40000
N1785       N  0.81291737  0.64079815  0.52662100    -0.39800
N1786       N  0.83911665  0.61555457  0.58156243    -0.37400
N1787       N  0.79177041  0.48263232  0.52435355    -0.38500
N1788       N  0.75378933  0.50379491  0.47706669    -0.40100
C1789       C  0.56216963  0.46463614  0.46531789    -0.05100
C1790       C  0.57201165  0.45856970  0.48590327     0.09100
C1791       C  0.60180003  0.46910925  0.48875131    -0.02400
C1792       C  0.62110048  0.48230508  0.47006666    -0.00700
C1793       C  0.61102143  0.48656096  0.44859136    -0.04300
C1794       C  0.58177038  0.47918721  0.44680281     0.02700
C1795       C  0.55124124  0.43683373  0.50304622     0.09500
C1796       C  0.61219460  0.46454076  0.51062002     0.35400
C1797       C  0.57119509  0.48455455  0.42545103     0.38900
C1798       C  0.54498745  0.40814762  0.50144707    -0.04700
C1799       C  0.53361712  0.38945584  0.52070385     0.02500
C1800       C  0.52755074  0.39908629  0.54173054    -0.04300
C1801       C  0.53131999  0.42708394  0.54240568    -0.00500
C1802       C  0.54308982  0.44581702  0.52303738    -0.03100
C1803       C  0.55203081  0.39851545  0.48024998     0.36200
C1804       C  0.52549503  0.43776633  0.56353179     0.39800
C1805       C  0.52939274  0.36072609  0.51881435     0.38900
C1806       C  0.54807296  0.47484837  0.52393282     0.35800
C1807       C  0.53162781  0.45454601  0.46282866     0.36500
C1808       C  0.65096994  0.48989192  0.47286135     0.39800
N1809       N  0.52642500  0.33802053  0.51707953    -0.38300
N1810       N  0.55771516  0.39097770  0.46334144    -0.39900
N1811       N  0.52100204  0.44640180  0.58040696    -0.37600
N1812       N  0.55189191  0.49796574  0.52452762    -0.40000
N1813       N  0.62035642  0.46085542  0.52806930    -0.39800
N1814       N  0.67450763  0.49523783  0.47533425    -0.37400
N1815       N  0.56277756  0.48895271  0.40844730    -0.38500
N1816       N  0.50723439  0.44647590  0.46084257    -0.40100
C1817       C  0.61633937  0.37500304  0.38508646    -0.05100
C1818       C  0.59390586  0.36269584  0.36832070     0.09100
C1819       C  0.58898648  0.38110023  0.35446114    -0.02400
C1820       C  0.60508859  0.41149971  0.35836551    -0.00700
C1821       C  0.62691815  0.42386088  0.37582021    -0.04300
C1822       C  0.63279035  0.40533074  0.38881321     0.02700
C1823       C  0.57470027  0.33017783  0.36638410     0.09500
C1824       C  0.56750486  0.36868141  0.33600583     0.35400
C1825       C  0.65468232  0.41704359  0.40702832     0.38900
C1826       C  0.54705864  0.31549482  0.37705221    -0.04700
C1827       C  0.53107068  0.28483687  0.37912392     0.02500
C1828       C  0.54258499  0.26844843  0.37041272    -0.04300
C1829       C  0.56984150  0.28336380  0.35874654    -0.00500
C1830       C  0.58554413  0.31394145  0.35655948    -0.03100
C1831       C  0.53586027  0.33220141  0.38717920     0.36200
C1832       C  0.58258881  0.26756719  0.34970532     0.39800
C1833       C  0.50413940  0.27076764  0.39223980     0.38900
C1834       C  0.61369435  0.32897587  0.34514923     0.35800
C1835       C  0.62217526  0.35625521  0.39887019     0.36500
C1836       C  0.59921045  0.42993299  0.34421791     0.39800
N1837       N  0.48283134  0.25988764  0.40291750    -0.38300
N1838       N  0.52701439  0.34560866  0.39523081    -0.39900
N1839       N  0.59286776  0.25503758  0.34256649    -0.37600
N1840       N  0.63622544  0.34100396  0.33620171    -0.40000
N1841       N  0.55053073  0.35881500  0.32116192    -0.39800
N1842       N  0.59443552  0.44457741  0.33292419    -0.37400
N1843       N  0.67211667  0.42635780  0.42155176    -0.38500
N1844       N  0.62693163  0.34126689  0.40969372    -0.40100
C1845       C  0.76406716  0.48049046  0.34623067    -0.05100
C1846       C  0.77785733  0.47490890  0.36442958     0.09100
C1847       C  0.78358323  0.49015977  0.38553948    -0.02400
C1848       C  0.77175644  0.50740665  0.38975504    -0.00700
C1849       C  0.75506472  0.51070579  0.37240816    -0.04300
C1850       C  0.75377595  0.49937154  0.34992795     0.02700
C1851       C  0.78431839  0.45130831  0.36274141     0.09500
C1852       C  0.80048860  0.48679718  0.40344739     0.35400
C1853       C  0.74180644  0.50679827  0.33066047     0.38900
C1854       C  0.81000774  0.45645632  0.35202505    -0.04700
C1855       C  0.81852956  0.43603465  0.35427673     0.02500
C1856       C  0.80207647  0.41092040  0.36823392    -0.04300
C1857       C  0.77605865  0.40575030  0.37870647    -0.00500
C1858       C  0.76677420  0.42531209  0.37522625    -0.03100
C1859       C  0.82837876  0.48348659  0.33968641     0.36200
C1860       C  0.76004271  0.38183018  0.39483160     0.39800
C1861       C  0.84453265  0.44124361  0.34248876     0.38900
C1862       C  0.73974900  0.41947188  0.38557900     0.35800
C1863       C  0.75924161  0.46571045  0.32413717     0.36500
C1864       C  0.77616645  0.52074031  0.41246290     0.39800
N1865       N  0.86528863  0.44542909  0.33308625    -0.38300
N1866       N  0.84305174  0.50516009  0.32996087    -0.39900
N1867       N  0.74737791  0.36289716  0.40781323    -0.37600
N1868       N  0.71820676  0.41480385  0.39381335    -0.40000
N1869       N  0.81397002  0.48407032  0.41765213    -0.39800
N1870       N  0.77990571  0.53063240  0.43089535    -0.37400
N1871       N  0.73322768  0.51339573  0.31496877    -0.38500
N1872       N  0.75530701  0.45379891  0.30653664    -0.40100
C1873       C  0.55070520  0.69718465  0.23072612    -0.05100
C1874       C  0.52618440  0.67446439  0.24213697     0.09100
C1875       C  0.50430008  0.65112906  0.22900038    -0.02400
C1876       C  0.50618758  0.65105448  0.20447458    -0.00700
C1877       C  0.53085960  0.67403206  0.19264617    -0.04300
C1878       C  0.55347006  0.69675619  0.20633824     0.02700
C1879       C  0.52365308  0.67531406  0.26811181     0.09500
C1880       C  0.47973609  0.62698511  0.24084994     0.35400
C1881       C  0.58014924  0.71978297  0.19581215     0.38900
C1882       C  0.50456010  0.68265808  0.27817289    -0.04700
C1883       C  0.50337467  0.68499957  0.30257621     0.02500
C1884       C  0.52113049  0.67978728  0.31712799    -0.04300
C1885       C  0.54070564  0.67311445  0.30698421    -0.00500
C1886       C  0.54160107  0.67041215  0.28265253    -0.03100
C1887       C  0.48603097  0.68768672  0.26335234     0.36200
C1888       C  0.56124136  0.67070279  0.32143469     0.39800
C1889       C  0.48357699  0.69238229  0.31270756     0.38900
C1890       C  0.56107906  0.66259425  0.27251047     0.35800
C1891       C  0.57319853  0.72131520  0.24426898     0.36500
C1892       C  0.48212024  0.62727110  0.19179674     0.39800
N1893       N  0.46791295  0.69842209  0.32082886    -0.38300
N1894       N  0.47112014  0.69146958  0.25147596    -0.39900
N1895       N  0.57816486  0.66928943  0.33263971    -0.37600
N1896       N  0.57664839  0.65642043  0.26440727    -0.40000
N1897       N  0.46016136  0.60768132  0.25024858    -0.39800
N1898       N  0.46283505  0.60824380  0.18182368    -0.37400
N1899       N  0.60158461  0.73817368  0.18763458    -0.38500
N1900       N  0.59106815  0.74043674  0.25517275    -0.40100
C1901       C  0.62480792  0.67009011  0.39842716    -0.05100
C1902       C  0.61698610  0.64275987  0.38904974     0.09100
C1903       C  0.58929292  0.62492855  0.37893309    -0.02400
C1904       C  0.56885700  0.63339533  0.37950530    -0.00700
C1905       C  0.57612883  0.66028580  0.38972779    -0.04300
C1906       C  0.60453993  0.67905459  0.39846798     0.02700
C1907       C  0.63630809  0.63089547  0.39156433     0.09500
C1908       C  0.58159651  0.59737567  0.36835096     0.35400
C1909       C  0.61246167  0.70689476  0.40844287     0.38900
C1910       C  0.62974892  0.60978987  0.40875749    -0.04700
C1911       C  0.64296456  0.59335116  0.40812624     0.02500
C1912       C  0.66292326  0.59796886  0.39034546    -0.04300
C1913       C  0.67244503  0.62175700  0.37516699    -0.00500
C1914       C  0.65854260  0.63768963  0.37530834    -0.03100
C1915       C  0.60815915  0.60395775  0.42638856     0.36200
C1916       C  0.69637625  0.62969657  0.35943139     0.39800
C1917       C  0.63622651  0.57200455  0.42607469     0.38900
C1918       C  0.66585480  0.65985794  0.35796620     0.35800
C1919       C  0.65332944  0.68842925  0.40872705     0.36500
C1920       C  0.54030334  0.61432814  0.36925321     0.39800
N1921       N  0.63079091  0.55562093  0.44097555    -0.38300
N1922       N  0.59085510  0.59929279  0.44036147    -0.39900
N1923       N  0.71582361  0.63637271  0.34712998    -0.37600
N1924       N  0.67152970  0.67748333  0.34407674    -0.40000
N1925       N  0.57549671  0.57542408  0.35994043    -0.39800
N1926       N  0.51754203  0.59910364  0.36115213    -0.37400
N1927       N  0.61877170  0.72915285  0.41635237    -0.38500
N1928       N  0.67612398  0.70299473  0.41696187    -0.40100
C1929       C  0.37234839  0.86692038  0.22830733    -0.05100
C1930       C  0.34600417  0.86107206  0.23840422     0.09100
C1931       C  0.32311316  0.85675942  0.22381935    -0.02400
C1932       C  0.32602823  0.85711224  0.19939346    -0.00700
C1933       C  0.35207489  0.86198845  0.18913544    -0.04300
C1934       C  0.37541426  0.86739777  0.20384007     0.02700
C1935       C  0.34228975  0.85953009  0.26443445     0.09500
C1936       C  0.29663434  0.85245123  0.23405739     0.35400
C1937       C  0.40236944  0.87257993  0.19393571     0.38900
C1938       C  0.35569767  0.88515478  0.27791710    -0.04700
C1939       C  0.35280691  0.88377442  0.30239329     0.02500
C1940       C  0.33556271  0.85650278  0.31387371    -0.04300
C1941       C  0.32012074  0.83104341  0.29985359    -0.00500
C1942       C  0.32445445  0.83250432  0.27550486    -0.03100
C1943       C  0.37228666  0.91315046  0.26644141     0.36200
C1944       C  0.29877780  0.80329122  0.30996812     0.39800
C1945       C  0.36690914  0.91090090  0.31538200     0.38900
C1946       C  0.31071620  0.80600546  0.26172433     0.35800
C1947       C  0.39633686  0.87238316  0.24319324     0.36500
C1948       C  0.30233403  0.85327881  0.18488374     0.39800
N1949       N  0.37821885  0.93263749  0.32558956    -0.38300
N1950       N  0.38544683  0.93545808  0.25726644    -0.39900
N1951       N  0.28100655  0.78119171  0.31766950    -0.37600
N1952       N  0.29988871  0.78491230  0.25069975    -0.40000
N1953       N  0.27557840  0.84907986  0.24229388    -0.39800
N1954       N  0.28339603  0.85016372  0.17334118    -0.37400
N1955       N  0.42394790  0.87678642  0.18611915    -0.38500
N1956       N  0.41551874  0.87697754  0.25512010    -0.40100
C1957       C  0.40541511  0.02830352  0.37776654    -0.05100
C1958       C  0.37669012  0.01961960  0.38369758     0.09100
C1959       C  0.36978556  0.04097291  0.38791076    -0.02400
C1960       C  0.39197588  0.07095524  0.38753045    -0.00700
C1961       C  0.42110566  0.07956956  0.38288342    -0.04300
C1962       C  0.42732565  0.05796979  0.37693017     0.02700
C1963       C  0.35511257  0.98779904  0.38725809     0.09500
C1964       C  0.34004351  0.03198035  0.39320187     0.35400
C1965       C  0.45630281  0.06610794  0.36943919     0.38900
C1966       C  0.35508302  0.97530417  0.40871807    -0.04700
C1967       C  0.34527764  0.94550055  0.40993144     0.02500
C1968       C  0.33512561  0.92796472  0.38971282    -0.04300
C1969       C  0.33035012  0.93941843  0.36933035    -0.00500
C1970       C  0.34084354  0.96947970  0.36799948    -0.03100
C1971       C  0.36764408  0.99375582  0.42903556     0.36200
C1972       C  0.31669775  0.92092342  0.34920769     0.39800
C1973       C  0.34680477  0.93313915  0.43179762     0.38900
C1974       C  0.33916122  0.98204262  0.34631869     0.35800
C1975       C  0.41267602  0.00644174  0.37340256     0.36500
C1976       C  0.38504004  0.09274564  0.39282400     0.39800
N1977       N  0.34802641  0.92335111  0.44927984    -0.38300
N1978       N  0.37769707  0.00857664  0.44519192    -0.39900
N1979       N  0.30558454  0.90610678  0.33320337    -0.37600
N1980       N  0.33782911  0.99206614  0.32899591    -0.40000
N1981       N  0.31624451  0.02474637  0.39736559    -0.39800
N1982       N  0.37954242  0.11020024  0.39701298    -0.37400
N1983       N  0.47930021  0.07246652  0.36336184    -0.38500
N1984       N  0.41830762  0.98889366  0.37014725    -0.40100
C1985       C  0.45209806  0.82372938  0.39086166    -0.05100
C1986       C  0.44403557  0.80198279  0.37379088     0.09100
C1987       C  0.42406024  0.79827651  0.35625035    -0.02400
C1988       C  0.41001541  0.81402828  0.35737275    -0.00700
C1989       C  0.41438847  0.83177383  0.37682055    -0.04300
C1990       C  0.43713678  0.83840332  0.39248377     0.02700
C1991       C  0.45404885  0.78107187  0.37628735     0.09500
C1992       C  0.41673688  0.77715923  0.33787693     0.35400
C1993       C  0.44547662  0.86068820  0.41006333     0.38900
C1994       C  0.44266247  0.76064798  0.39454553    -0.04700
C1995       C  0.45354234  0.74255158  0.39874669     0.02500
C1996       C  0.47502344  0.74355697  0.38399330    -0.04300
C1997       C  0.48647800  0.76407119  0.36571292    -0.00500
C1998       C  0.47599958  0.78275800  0.36189145    -0.03100
C1999       C  0.41974399  0.75843320  0.40922251     0.36200
C2000       C  0.50892414  0.76593000  0.35076095     0.39800
C2001       C  0.44369221  0.72409454  0.41919349     0.38900
C2002       C  0.48784013  0.80383162  0.34322912     0.35800
C2003       C  0.47475277  0.82984038  0.40753150     0.36500
C2004       C  0.39114274  0.81205929  0.33869548     0.39800
N2005       N  0.43592990  0.70954303  0.43557007    -0.38300
N2006       N  0.40151676  0.75677327  0.42088211    -0.39900
N2007       N  0.52696600  0.76753954  0.33889486    -0.37600
N2008       N  0.49709683  0.82056711  0.32825611    -0.40000
N2009       N  0.41084450  0.76029151  0.32318589    -0.39800
N2010       N  0.37686194  0.81145508  0.32349535    -0.37400
N2011       N  0.45285264  0.87885069  0.42386083    -0.38500
N2012       N  0.49277260  0.83464075  0.42084912    -0.40100
C2013       C  0.17136470  0.50882972  0.29040844    -0.05100
C2014       C  0.15110942  0.48454032  0.27705245     0.09100
C2015       C  0.12922431  0.45929244  0.28846697    -0.02400
C2016       C  0.12799443  0.45812406  0.31302606    -0.00700
C2017       C  0.14836577  0.48240865  0.32645740    -0.04300
C2018       C  0.16959129  0.50807532  0.31490413     0.02700
C2019       C  0.15306568  0.48565805  0.25094284     0.09500
C2020       C  0.10789853  0.43447813  0.27486510     0.35400
C2021       C  0.19044792  0.53357268  0.32814972     0.38900
C2022       C  0.16334841  0.47011991  0.23891704    -0.04700
C2023       C  0.16594149  0.47173407  0.21444333     0.02500
C2024       C  0.15917354  0.48974583  0.20167096    -0.04300
C2025       C  0.14890114  0.50538272  0.21387474    -0.00500
C2026       C  0.14547069  0.50295326  0.23827546    -0.03100
C2027       C  0.17150358  0.45256649  0.25184593     0.36200
C2028       C  0.14268221  0.52484363  0.20159210     0.39800
C2029       C  0.17459643  0.45390870  0.20247050     0.38900
C2030       C  0.13413246  0.51836845  0.25045296     0.35800
C2031       C  0.19467229  0.53439192  0.27888426     0.36500
C2032       C  0.10481826  0.43233724  0.32432107     0.39800
N2033       N  0.18137631  0.43957742  0.19293615    -0.38300
N2034       N  0.17792079  0.43853894  0.26222733    -0.39900
N2035       N  0.13771348  0.54043486  0.19192996    -0.37600
N2036       N  0.12513645  0.53068556  0.26018140    -0.40000
N2037       N  0.09098941  0.41465163  0.26399183    -0.39800
N2038       N  0.08597602  0.41167387  0.33299853    -0.37400
N2039       N  0.20720806  0.55392496  0.33860813    -0.38500
N2040       N  0.21330786  0.55470312  0.26965264    -0.40100
C2041       C  0.02542269  0.40265692  0.42380081    -0.05100
C2042       C  0.01121394  0.38098776  0.40663328     0.09100
C2043       C  0.02722364  0.37239527  0.39321486    -0.02400
C2044       C  0.05784057  0.38817471  0.39481307    -0.00700
C2045       C  0.07219343  0.41292553  0.40924844    -0.04300
C2046       C  0.05593966  0.41826622  0.42536113     0.02700
C2047       C  0.98087958  0.37143499  0.39988563     0.09500
C2048       C  0.01230484  0.34882270  0.37660432     0.35400
C2049       C  0.07054087  0.43947018  0.44373401     0.38900
C2050       C  0.97666295  0.38702252  0.38250073    -0.04700
C2051       C  0.94841099  0.37963266  0.37646336     0.02500
C2052       C  0.92381883  0.35749954  0.38889208    -0.04300
C2053       C  0.92835999  0.34160201  0.40619754    -0.00500
C2054       C  0.95679732  0.34838841  0.41136597    -0.03100
C2055       C  0.00173860  0.41151323  0.37130820     0.36200
C2056       C  0.90418435  0.31886964  0.41936741     0.39800
C2057       C  0.94528683  0.39503363  0.35716903     0.38900
C2058       C  0.96149421  0.33212893  0.42889422     0.35800
C2059       C  0.00881938  0.41042825  0.43854224     0.36500
C2060       C  0.07459554  0.37962739  0.38118024     0.39800
N2061       N  0.94308863  0.40744794  0.34178012    -0.38300
N2062       N  0.02177268  0.43115807  0.36262421    -0.39900
N2063       N  0.88494465  0.30071430  0.42992252    -0.37600
N2064       N  0.96531917  0.31916278  0.44283565    -0.40000
N2065       N  0.00029367  0.33004229  0.36331216    -0.39800
N2066       N  0.08799404  0.37254496  0.37059572    -0.37400
N2067       N  0.08155150  0.45554269  0.45905352    -0.38500
N2068       N  0.99557046  0.41670949  0.45020681    -0.40100
C2069       C  0.26889045  0.69996230  0.36545155    -0.05100
C2070       C  0.25088806  0.68300676  0.38394085     0.09100
C2071       C  0.24647011  0.69668082  0.40293099    -0.02400
C2072       C  0.26053921  0.72725616  0.40371020    -0.00700
C2073       C  0.27895411  0.74449195  0.38532675    -0.04300
C2074       C  0.28330063  0.73060800  0.36633431     0.02700
C2075       C  0.23812519  0.65084568  0.38440361     0.09500
C2076       C  0.22824876  0.67920795  0.42215179     0.35400
C2077       C  0.30363096  0.74771190  0.34816160     0.38900
C2078       C  0.25371078  0.63969092  0.39485470    -0.04700
C2079       C  0.24043670  0.60945998  0.39819139     0.02500
C2080       C  0.21154964  0.58983986  0.39026145    -0.04300
C2081       C  0.19688165  0.60127832  0.37817710    -0.00500
C2082       C  0.20992808  0.63162404  0.37576380    -0.03100
C2083       C  0.28330113  0.65957725  0.40277270     0.36200
C2084       C  0.16836666  0.58206949  0.36802035     0.39800
C2085       C  0.25622979  0.59911121  0.41105597     0.38900
C2086       C  0.19410041  0.64326094  0.36483662     0.35800
C2087       C  0.27305077  0.68576815  0.34578129     0.36500
C2088       C  0.25797750  0.74071584  0.42456633     0.39800
N2089       N  0.26873967  0.59086940  0.42144482    -0.38300
N2090       N  0.30693956  0.67545172  0.40897320    -0.39900
N2091       N  0.14562479  0.56682817  0.35988614    -0.37600
N2092       N  0.18150564  0.65263439  0.35622694    -0.40000
N2093       N  0.21378129  0.66525867  0.43747854    -0.39800
N2094       N  0.25571555  0.75030325  0.44182447    -0.37400
N2095       N  0.31992454  0.76075744  0.33347037    -0.38500
N2096       N  0.27622012  0.67433048  0.33008757    -0.40100
C2097       C  0.36585104  0.55806018  0.36088535    -0.05100
C2098       C  0.34482155  0.56454081  0.36738388     0.09100
C2099       C  0.35368222  0.59312366  0.37402901    -0.02400
C2100       C  0.38344243  0.61435184  0.37662606    -0.00700
C2101       C  0.40463268  0.60719573  0.37236642    -0.04300
C2102       C  0.39577289  0.57944961  0.36306936     0.02700
C2103       C  0.31382614  0.54079300  0.37096377     0.09500
C2104       C  0.33201890  0.60030494  0.37928130     0.35400
C2105       C  0.41716882  0.57204390  0.35741637     0.38900
C2106       C  0.30538610  0.52730388  0.39285971    -0.04700
C2107       C  0.27575364  0.50976691  0.39853439     0.02500
C2108       C  0.25415421  0.50578549  0.38245693    -0.04300
C2109       C  0.26264020  0.51591456  0.35942886    -0.00500
C2110       C  0.29250430  0.53399744  0.35386299    -0.03100
C2111       C  0.32718119  0.53294761  0.41024051     0.36200
C2112       C  0.24097181  0.50833020  0.34155138     0.39800
C2113       C  0.26768148  0.49639235  0.42129152     0.38900
C2114       C  0.30135420  0.54681961  0.33097272     0.35800
C2115       C  0.35657993  0.52890653  0.35318267     0.36500
C2116       C  0.39208713  0.64344557  0.38409366     0.39800
N2117       N  0.26162495  0.48596834  0.43953496    -0.38300
N2118       N  0.34409729  0.53719449  0.42444289    -0.39900
N2119       N  0.22394061  0.50177494  0.32693289    -0.37600
N2120       N  0.30847926  0.55716917  0.31273314    -0.40000
N2121       N  0.31480457  0.60614800  0.38335332    -0.39800
N2122       N  0.39858519  0.66653764  0.39003457    -0.37400
N2123       N  0.43424067  0.56613690  0.35289058    -0.38500
N2124       N  0.34912564  0.50560823  0.34706403    -0.40100
C2125       C  0.54884283  0.85809421  0.72427366    -0.05100
C2126       C  0.52903247  0.86092664  0.73819637     0.09100
C2127       C  0.50771361  0.86446519  0.72747370    -0.02400
C2128       C  0.50672670  0.86609356  0.70304507    -0.00700
C2129       C  0.52585374  0.86217875  0.68891884    -0.04300
C2130       C  0.54702631  0.85827514  0.69977264     0.02700
C2131       C  0.53108916  0.86116047  0.76423245     0.09500
C2132       C  0.48659016  0.86623969  0.74171220     0.35400
C2133       C  0.56811105  0.85610637  0.68582144     0.38900
C2134       C  0.54256896  0.88755227  0.77665534    -0.04700
C2135       C  0.54298930  0.88764922  0.80119125     0.02500
C2136       C  0.53258537  0.86143997  0.81351013    -0.04300
C2137       C  0.52207958  0.83518658  0.80105867    -0.00500
C2138       C  0.52083101  0.83498484  0.77652824    -0.03100
C2139       C  0.55381937  0.91461164  0.76409372     0.36200
C2140       C  0.51197096  0.80816801  0.81334547     0.39800
C2141       C  0.55449679  0.91482793  0.81378234     0.38900
C2142       C  0.50818208  0.80770183  0.76390638     0.35800
C2143       C  0.57155713  0.85566715  0.73524084     0.36500
C2144       C  0.48613183  0.87219415  0.69269142     0.39800
N2145       N  0.56372396  0.93652532  0.82381059    -0.38300
N2146       N  0.56270810  0.93611669  0.75396766    -0.39900
N2147       N  0.50385965  0.78626003  0.82261897    -0.37600
N2148       N  0.49797101  0.78593185  0.75383046    -0.40000
N2149       N  0.46972051  0.86751902  0.75313572    -0.39800
N2150       N  0.46988256  0.87751161  0.68471492    -0.37400
N2151       N  0.58499124  0.85447934  0.67469178    -0.38500
N2152       N  0.58971593  0.85382087  0.74402495    -0.40100
C2153       C  0.62540551  0.04113101  0.60151180    -0.05100
C2154       C  0.64581338  0.03506739  0.61059141     0.09100
C2155       C  0.67357301  0.05827024  0.61738776    -0.02400
C2156       C  0.68004805  0.08726660  0.61677203    -0.00700
C2157       C  0.65873738  0.09307657  0.60924440    -0.04300
C2158       C  0.63182310  0.06990247  0.60077736     0.02700
C2159       C  0.63612712  0.00389939  0.61470954     0.09500
C2160       C  0.69512627  0.05215645  0.62540266     0.35400
C2161       C  0.61030686  0.07530492  0.59136965     0.38900
C2162       C  0.63271588  0.98583472  0.59570028    -0.04700
C2163       C  0.61252606  0.95554156  0.59698890     0.02500
C2164       C  0.59638395  0.94330155  0.61750205    -0.04300
C2165       C  0.60322553  0.96078217  0.63759080    -0.00500
C2166       C  0.62317702  0.99108105  0.63620576    -0.03100
C2167       C  0.64855963  0.99879084  0.57440326     0.36200
C2168       C  0.58816172  0.94790941  0.65923768     0.39800
C2169       C  0.60691589  0.93722188  0.57682325     0.38900
C2170       C  0.62872149  0.00937431  0.65640994     0.35800
C2171       C  0.59715071  0.01742520  0.59366553     0.36500
C2172       C  0.70793037  0.11081702  0.62520202     0.39800
N2173       N  0.60242987  0.92249128  0.56078650    -0.38300
N2174       N  0.66142281  0.00918418  0.55747501    -0.39900
N2175       N  0.57622480  0.93774026  0.67654906    -0.37600
N2176       N  0.63329763  0.02398438  0.67255097    -0.40000
N2177       N  0.71237781  0.04725048  0.63166927    -0.39800
N2178       N  0.73015934  0.12961300  0.63198994    -0.37400
N2179       N  0.59252379  0.07854414  0.58363028    -0.38500
N2180       N  0.57471169  0.99845025  0.58740692    -0.40100
C2181       C  0.53913200  0.81095055  0.50786678    -0.05100
C2182       C  0.55811772  0.80088039  0.51093782     0.09100
C2183       C  0.57427669  0.80752974  0.53170763    -0.02400
C2184       C  0.56940180  0.82178346  0.55020691    -0.00700
C2185       C  0.54769377  0.82871850  0.54816664    -0.04300
C2186       C  0.53346395  0.82423906  0.52644001     0.02700
C2187       C  0.55662987  0.77910908  0.49389630     0.09500
C2188       C  0.59483094  0.79836058  0.53434822     0.35400
C2189       C  0.51150552  0.83156151  0.52334236     0.38900
C2190       C  0.57376152  0.78800827  0.47357865    -0.04700
C2191       C  0.56674406  0.76818431  0.45494242     0.02500
C2192       C  0.54217890  0.73946623  0.45648701    -0.04300
C2193       C  0.52708675  0.72995234  0.47791127    -0.00500
C2194       C  0.53440882  0.74964528  0.49649409    -0.03100
C2195       C  0.59772047  0.81791570  0.47153802     0.36200
C2196       C  0.50314296  0.70009940  0.48079521     0.39800
C2197       C  0.58357808  0.77802328  0.43368992     0.38900
C2198       C  0.51791443  0.73995299  0.51798064     0.35800
C2199       C  0.52403953  0.80599500  0.48586018     0.36500
C2200       C  0.58505145  0.82706662  0.57188412     0.39800
N2201       N  0.59710147  0.78587227  0.41675464    -0.38300
N2202       N  0.61690502  0.84179978  0.47001613    -0.39900
N2203       N  0.48382780  0.67651942  0.48360577    -0.37600
N2204       N  0.50479985  0.73219279  0.53511190    -0.40000
N2205       N  0.61125971  0.79103048  0.53634113    -0.39800
N2206       N  0.59760756  0.83131623  0.58917263    -0.37400
N2207       N  0.49354414  0.83669487  0.52051135    -0.38500
N2208       N  0.51211941  0.80211775  0.46828951    -0.40100
C2209       C  0.44420885  0.92312672  0.47794161    -0.05100
C2210       C  0.44587457  0.90191208  0.49080693     0.09100
C2211       C  0.42811694  0.87229765  0.48464762    -0.02400
C2212       C  0.40835383  0.86379324  0.46611562    -0.00700
C2213       C  0.40633814  0.88491389  0.45326363    -0.04300
C2214       C  0.42459516  0.91465903  0.45904097     0.02700
C2215       C  0.46520110  0.90971531  0.51158882     0.09500
C2216       C  0.43022672  0.85042610  0.49747039     0.35400
C2217       C  0.42263836  0.93637922  0.44597059     0.38900
C2218       C  0.45486500  0.91157564  0.53359823    -0.04700
C2219       C  0.46775412  0.90881454  0.55392381     0.02500
C2220       C  0.48952620  0.90193386  0.55210672    -0.04300
C2221       C  0.50302009  0.90521762  0.53031178    -0.00500
C2222       C  0.49084102  0.90912702  0.51005457    -0.03100
C2223       C  0.42930537  0.91362920  0.53524157     0.36200
C2224       C  0.52925793  0.90438425  0.52869485     0.39800
C2225       C  0.45727395  0.91134494  0.57645346     0.38900
C2226       C  0.50333022  0.91045285  0.48745772     0.35800
C2227       C  0.46261978  0.95353960  0.48423483     0.36500
C2228       C  0.39089764  0.83319557  0.45977031     0.39800
N2229       N  0.44894341  0.91348856  0.59440991    -0.38300
N2230       N  0.40878840  0.91506316  0.53649917    -0.39900
N2231       N  0.55028238  0.90388044  0.52723611    -0.37600
N2232       N  0.51326344  0.91158121  0.46939354    -0.40000
N2233       N  0.43203595  0.83304527  0.50761492    -0.39800
N2234       N  0.37705326  0.80881639  0.45476286    -0.37400
N2235       N  0.42104916  0.95369759  0.43551750    -0.38500
N2236       N  0.47732095  0.97782039  0.48930808    -0.40100
C2237       C  0.16768799  0.69810693  0.78314975    -0.05100
C2238       C  0.15762423  0.67242280  0.77011076     0.09100
C2239       C  0.14918209  0.64624476  0.78171965    -0.02400
C2240       C  0.15215201  0.64594153  0.80607910    -0.00700
C2241       C  0.16233488  0.67171880  0.81939989    -0.04300
C2242       C  0.16953991  0.69771880  0.80765849     0.02700
C2243       C  0.15735497  0.67311009  0.74401212     0.09500
C2244       C  0.13730265  0.61946630  0.76846393     0.35400
C2245       C  0.17776992  0.72395484  0.82065384     0.38900
C2246       C  0.17940034  0.67257266  0.73136069    -0.04700
C2247       C  0.17884388  0.67209913  0.70684687     0.02500
C2248       C  0.15648773  0.67270108  0.69471395    -0.04300
C2249       C  0.13467215  0.67372526  0.70734282    -0.00500
C2250       C  0.13498936  0.67370575  0.73191828    -0.03100
C2251       C  0.20273787  0.67254782  0.74367939     0.36200
C2252       C  0.11121231  0.67353514  0.69503752     0.39800
C2253       C  0.20160690  0.67144356  0.69408919     0.38900
C2254       C  0.11197171  0.67365956  0.74479884     0.35800
C2255       C  0.17622747  0.72502186  0.77121683     0.36500
C2256       C  0.14561492  0.61907785  0.81710305     0.39800
N2257       N  0.21971752  0.67086626  0.68390800    -0.38300
N2258       N  0.22128481  0.67251563  0.75360559    -0.39900
N2259       N  0.09252321  0.67331679  0.68511948    -0.37600
N2260       N  0.09358773  0.67360881  0.75507950    -0.40000
N2261       N  0.12767503  0.59810069  0.75789722    -0.39800
N2262       N  0.14039990  0.59757085  0.82573165    -0.37400
N2263       N  0.18411140  0.74492898  0.83088007    -0.38500
N2264       N  0.18296823  0.74641580  0.76159951    -0.40100
C2265       C  0.02762828  0.62621674  0.60827602    -0.05100
C2266       C  0.02156409  0.64845076  0.60691120     0.09100
C2267       C  0.04470242  0.67779212  0.60787105    -0.02400
C2268       C  0.07367980  0.68484944  0.61127691    -0.00700
C2269       C  0.07979978  0.66248519  0.61293871    -0.04300
C2270       C  0.05643120  0.63307844  0.61067823     0.02700
C2271       C  0.99037592  0.63990070  0.60484666     0.09500
C2272       C  0.03858288  0.70063615  0.60542303     0.35400
C2273       C  0.06153347  0.60933579  0.61049747     0.38900
C2274       C  0.97463489  0.63829850  0.62495859    -0.04700
C2275       C  0.94391448  0.62027187  0.62515550     0.02500
C2276       C  0.92902586  0.60354913  0.60530714    -0.04300
C2277       C  0.94452989  0.60891860  0.58426081    -0.00500
C2278       C  0.97512464  0.62706414  0.58402443    -0.03100
C2279       C  0.99020238  0.65333768  0.64593771     0.36200
C2280       C  0.92906742  0.59449286  0.56307347     0.39800
C2281       C  0.92798668  0.61713367  0.64630529     0.38900
C2282       C  0.99117461  0.63035302  0.56288589     0.35800
C2283       C  0.00390848  0.59590660  0.60755586     0.36500
C2284       C  0.09676542  0.71503567  0.61418982     0.39800
N2285       N  0.91527773  0.61478400  0.66316624    -0.38300
N2286       N  0.00270875  0.66548915  0.66262288    -0.39900
N2287       N  0.91680584  0.58311260  0.54610899    -0.37600
N2288       N  0.00404525  0.63287272  0.54608530    -0.40000
N2289       N  0.03366655  0.71884988  0.60336769    -0.39800
N2290       N  0.11506987  0.73916512  0.61667761    -0.37400
N2291       N  0.06484125  0.58992269  0.61037093    -0.38500
N2292       N  0.98500493  0.57180024  0.60697671    -0.40100
C2293       C  0.12782751  0.59408653  0.51858580    -0.05100
C2294       C  0.11672637  0.56432456  0.52256004     0.09100
C2295       C  0.10683742  0.55258005  0.54491482    -0.02400
C2296       C  0.11149023  0.57122596  0.56381005    -0.00700
C2297       C  0.12541626  0.60147535  0.56016070    -0.04300
C2298       C  0.13181111  0.61256538  0.53733436     0.02700
C2299       C  0.12085364  0.54722538  0.50429127     0.09500
C2300       C  0.09377359  0.52166176  0.54863915     0.35400
C2301       C  0.14365314  0.64323543  0.53319747     0.38900
C2302       C  0.14594063  0.54560412  0.50518281    -0.04700
C2303       C  0.15356025  0.53473673  0.48607803     0.02500
C2304       C  0.13619172  0.52556886  0.46562760    -0.04300
C2305       C  0.11021398  0.52601813  0.46530544    -0.00500
C2306       C  0.10244716  0.53641918  0.48474960    -0.03100
C2307       C  0.16468032  0.55637884  0.52553528     0.36200
C2308       C  0.09227826  0.51763461  0.44457058     0.39800
C2309       C  0.17974402  0.53367298  0.48760656     0.38900
C2310       C  0.07594817  0.53690225  0.48446764     0.35800
C2311       C  0.13743023  0.60611175  0.49548633     0.36500
C2312       C  0.10439142  0.55969245  0.58721843     0.39800
N2313       N  0.20074501  0.53309459  0.48891080    -0.38300
N2314       N  0.17952632  0.56498219  0.54178273    -0.39900
N2315       N  0.07793986  0.51096712  0.42804754    -0.37600
N2316       N  0.05474890  0.53718595  0.48428730    -0.40000
N2317       N  0.08329934  0.49696479  0.55158977    -0.39800
N2318       N  0.09887773  0.55059281  0.60593324    -0.37400
N2319       N  0.15282012  0.66756343  0.52946858    -0.38500
N2320       N  0.14518477  0.61559714  0.47705988    -0.40100
C2321       C  0.26844057  0.81436993  0.49474776    -0.05100
C2322       C  0.23939139  0.79066820  0.49329520     0.09100
C2323       C  0.22522139  0.78285880  0.47149434    -0.02400
C2324       C  0.24104925  0.79654006  0.45105034    -0.00700
C2325       C  0.27125095  0.81709575  0.45236228    -0.04300
C2326       C  0.28441643  0.82737569  0.47432163     0.02700
C2327       C  0.22591837  0.77121724  0.51396129     0.09500
C2328       C  0.19507917  0.75920885  0.46993563     0.35400
C2329       C  0.31469523  0.85069531  0.47598807     0.38900
C2330       C  0.20404764  0.77127111  0.52726985    -0.04700
C2331       C  0.19248376  0.75332093  0.54714293     0.02500
C2332       C  0.20335685  0.73587599  0.55416937    -0.04300
C2333       C  0.22539273  0.73601917  0.54074869    -0.00500
C2334       C  0.23610824  0.75309257  0.52056769    -0.03100
C2335       C  0.19356625  0.78986059  0.52050242     0.36200
C2336       C  0.23786581  0.71922690  0.54798106     0.39800
C2337       C  0.16857287  0.75184926  0.55969023     0.38900
C2338       C  0.25784127  0.75205787  0.50652680     0.35800
C2339       C  0.28247228  0.82388181  0.51727302     0.36500
C2340       C  0.22693132  0.78757992  0.42854024     0.39800
N2341       N  0.14926047  0.75048838  0.56951205    -0.38300
N2342       N  0.18521860  0.80470533  0.51501945    -0.39900
N2343       N  0.24782546  0.70587150  0.55371374    -0.37600
N2344       N  0.27517617  0.75124057  0.49538098    -0.40000
N2345       N  0.17101330  0.74031393  0.46871954    -0.39800
N2346       N  0.21572242  0.78045834  0.41055427    -0.37400
N2347       N  0.33874193  0.86944605  0.47784738    -0.38500
N2348       N  0.29364490  0.83132330  0.53525170    -0.40100
C2349       C  0.37504370  0.80472274  0.65462994    -0.05100
C2350       C  0.35505206  0.80294139  0.63799122     0.09100
C2351       C  0.36518515  0.81593337  0.61605978    -0.02400
C2352       C  0.39479719  0.82899504  0.61020766    -0.00700
C2353       C  0.41485981  0.82962994  0.62646704    -0.04300
C2354       C  0.40462917  0.81716854  0.64870168     0.02700
C2355       C  0.32306126  0.78205549  0.64127532     0.09500
C2356       C  0.34466781  0.81424895  0.59890829     0.35400
C2357       C  0.42333586  0.81337701  0.66433632     0.38900
C2358       C  0.30375229  0.79186294  0.64422205    -0.04700
C2359       C  0.27337253  0.77206905  0.64211022     0.02500
C2360       C  0.26232024  0.74239923  0.63720396    -0.04300
C2361       C  0.28158456  0.73226086  0.63725305    -0.00500
C2362       C  0.31179757  0.75205079  0.63854489    -0.03100
C2363       C  0.31528320  0.82250537  0.64821887     0.36200
C2364       C  0.27059582  0.70138865  0.63630572     0.39800
C2365       C  0.25373507  0.78250890  0.64385527     0.38900
C2366       C  0.33142598  0.74167732  0.63546546     0.35800
C2367       C  0.36466815  0.79207753  0.67743236     0.36500
C2368       C  0.40373892  0.83970230  0.58671477     0.39800
N2369       N  0.23801307  0.79078167  0.64539236    -0.38300
N2370       N  0.32448914  0.84698356  0.65135242    -0.39900
N2371       N  0.26296913  0.67701159  0.63610620    -0.37600
N2372       N  0.34714237  0.73354168  0.63288392    -0.40000
N2373       N  0.32829610  0.81293096  0.58529211    -0.39800
N2374       N  0.41002996  0.84726171  0.56767654    -0.37400
N2375       N  0.43778394  0.80946677  0.67667078    -0.38500
N2376       N  0.35633526  0.78198374  0.69561268    -0.40100
C2377       C  0.33996903  0.50899126  0.78755331    -0.05100
C2378       C  0.33435388  0.48371019  0.77565815     0.09100
C2379       C  0.33049644  0.45972147  0.78838045    -0.02400
C2380       C  0.33295168  0.46124706  0.81282985    -0.00700
C2381       C  0.33826060  0.48640076  0.82484707    -0.04300
C2382       C  0.34205077  0.51043201  0.81202341     0.02700
C2383       C  0.33394975  0.48309611  0.74960771     0.09500
C2384       C  0.32442152  0.43358470  0.77624641     0.35400
C2385       C  0.34773797  0.53659549  0.82392957     0.38900
C2386       C  0.36030675  0.49753126  0.73718731    -0.04700
C2387       C  0.36027890  0.49987703  0.71273922     0.02500
C2388       C  0.33354236  0.48652820  0.70016211    -0.04300
C2389       C  0.30708545  0.47003272  0.71290409    -0.00500
C2390       C  0.30740504  0.46898834  0.73742838    -0.03100
C2391       C  0.38759824  0.50992146  0.74977749     0.36200
C2392       C  0.27925046  0.45328282  0.70110730     0.39800
C2393       C  0.38808974  0.51671010  0.70100560     0.38900
C2394       C  0.28028625  0.45339024  0.75027534     0.35800
C2395       C  0.34350217  0.53351387  0.77448070     0.36500
C2396       C  0.33254821  0.43788639  0.82532448     0.39800
N2397       N  0.41043158  0.53022317  0.69188693    -0.38300
N2398       N  0.40924046  0.51953238  0.75992094    -0.39900
N2399       N  0.25699646  0.43977820  0.69180461    -0.37600
N2400       N  0.25868792  0.44090853  0.76053868    -0.40000
N2401       N  0.31934201  0.41261150  0.76663343    -0.39800
N2402       N  0.33292477  0.41937982  0.83491947    -0.37400
N2403       N  0.35207825  0.55744585  0.83332415    -0.38500
N2404       N  0.34629514  0.55297938  0.76393167    -0.40100
C2405       C  0.39871466  0.37938091  0.58785485    -0.05100
C2406       C  0.38076787  0.37324530  0.60749028     0.09100
C2407       C  0.37813525  0.35280318  0.62399301    -0.02400
C2408       C  0.39545752  0.34059960  0.62200851    -0.00700
C2409       C  0.41528819  0.34869705  0.60342604    -0.04300
C2410       C  0.41602315  0.36716619  0.58584217     0.02700
C2411       C  0.36964556  0.39257232  0.61307923     0.09500
C2412       C  0.35909776  0.34596170  0.64383952     0.35400
C2413       C  0.43568826  0.37478866  0.56632023     0.38900
C2414       C  0.34190981  0.38579435  0.60568406    -0.04700
C2415       C  0.33295838  0.40565460  0.60976085     0.02500
C2416       C  0.35186921  0.43235530  0.62119245    -0.04300
C2417       C  0.37902940  0.43829913  0.62957924    -0.00500
C2418       C  0.38794160  0.41862597  0.62535540    -0.03100
C2419       C  0.32298314  0.35874142  0.59344313     0.36200
C2420       C  0.39779954  0.46458111  0.64288881     0.39800
C2421       C  0.30488496  0.39912672  0.60136228     0.38900
C2422       C  0.41637315  0.42548139  0.63320332     0.35800
C2423       C  0.40081788  0.39988971  0.57061790     0.36500
C2424       C  0.39450011  0.32142762  0.64000518     0.39800
N2425       N  0.28245728  0.39387179  0.59467298    -0.38300
N2426       N  0.30787474  0.33713416  0.58366686    -0.39900
N2427       N  0.41274306  0.48550843  0.65350832    -0.37600
N2428       N  0.43905353  0.43089967  0.63934092    -0.40000
N2429       N  0.34390966  0.34056644  0.65967335    -0.39800
N2430       N  0.39384980  0.30623223  0.65440132    -0.37400
N2431       N  0.45129327  0.38092689  0.55067662    -0.38500
N2432       N  0.40242962  0.41633569  0.55698543    -0.40100
C2433       C  0.21544206  0.42208498  0.54577719    -0.05100
C2434       C  0.22371548  0.43939555  0.52552931     0.09100
C2435       C  0.25199473  0.46424839  0.52400146    -0.02400
C2436       C  0.27194092  0.47162610  0.54220323    -0.00700
C2437       C  0.26319189  0.45593397  0.56330800    -0.04300
C2438       C  0.23505429  0.43050408  0.56477557     0.02700
C2439       C  0.20312301  0.43320660  0.50578028     0.09500
C2440       C  0.26008403  0.48380040  0.50433534     0.35400
C2441       C  0.22568953  0.41398359  0.58617225     0.38900
C2442       C  0.18319581  0.44234928  0.50727610    -0.04700
C2443       C  0.17224886  0.44747537  0.48682033     0.02500
C2444       C  0.18210990  0.44463133  0.46472216    -0.04300
C2445       C  0.19813317  0.43080173  0.46338434    -0.00500
C2446       C  0.20855726  0.42511363  0.48392590    -0.03100
C2447       C  0.17567151  0.44858234  0.52980153     0.36200
C2448       C  0.20577646  0.42420671  0.44106873     0.39800
C2449       C  0.15107838  0.45602002  0.48859597     0.38900
C2450       C  0.22710994  0.41333582  0.48258800     0.35800
C2451       C  0.18635655  0.39655817  0.54744995     0.36500
C2452       C  0.30155965  0.49576029  0.53877227     0.39800
N2453       N  0.13399047  0.46256574  0.49010416    -0.38300
N2454       N  0.16960507  0.45346835  0.54778199    -0.39900
N2455       N  0.21203043  0.41897021  0.42331140    -0.37600
N2456       N  0.24200055  0.40403820  0.48159561    -0.40000
N2457       N  0.26668201  0.49993610  0.48907218    -0.39800
N2458       N  0.32477391  0.51494060  0.53455567    -0.37400
N2459       N  0.21815143  0.40083920  0.60328229    -0.38500
N2460       N  0.16303048  0.37630697  0.54882650    -0.40100
C2461       C  0.42464909  0.56366421  0.47367333    -0.05100
C2462       C  0.44059522  0.57393154  0.49455975     0.09100
C2463       C  0.46965906  0.59761240  0.49408334    -0.02400
C2464       C  0.48159345  0.61304212  0.47324631    -0.00700
C2465       C  0.46434449  0.60495811  0.45293739    -0.04300
C2466       C  0.43658664  0.57904253  0.45282393     0.02700
C2467       C  0.42510423  0.56344588  0.51722784     0.09500
C2468       C  0.48661876  0.60700691  0.51533477     0.35400
C2469       C  0.41956395  0.56920517  0.43163340     0.38900
C2470       C  0.42396378  0.54023956  0.52930231    -0.04700
C2471       C  0.40807513  0.53008631  0.55025955     0.02500
C2472       C  0.39318028  0.54304664  0.55895138    -0.04300
C2473       C  0.39476989  0.56656006  0.54698351    -0.00500
C2474       C  0.41073558  0.57675497  0.52625996    -0.03100
C2475       C  0.43873581  0.52663374  0.51992216     0.36200
C2476       C  0.37995879  0.58038927  0.55600884     0.39800
C2477       C  0.40618704  0.50574339  0.56241298     0.38900
C2478       C  0.41217299  0.60086840  0.51400675     0.35800
C2479       C  0.39521988  0.53840569  0.47402845     0.36500
C2480       C  0.51146521  0.63748182  0.47271480     0.39800
N2481       N  0.40463420  0.48627616  0.57208658    -0.38300
N2482       N  0.45053573  0.51579290  0.51237793    -0.39900
N2483       N  0.36809450  0.59138263  0.56310297    -0.37600
N2484       N  0.41334712  0.62007255  0.50420351    -0.40000
N2485       N  0.50010346  0.61441610  0.53232709    -0.39800
N2486       N  0.53531854  0.65693138  0.47220897    -0.37400
N2487       N  0.40627763  0.56136714  0.41457156    -0.38500
N2488       N  0.37173558  0.51827872  0.47438960    -0.40100
C2489       C  0.45405838  0.71788413  0.64823886    -0.05100
C2490       C  0.44296937  0.69741445  0.62990419     0.09100
C2491       C  0.44659775  0.70719174  0.60668191    -0.02400
C2492       C  0.46043827  0.73713767  0.60188655    -0.07900
C2493       C  0.47088076  0.75755396  0.62024506    -0.04300
C2494       C  0.46787987  0.74791602  0.64343176     0.02700
C2495       C  0.42508753  0.66543216  0.63483253     0.09500
C2496       C  0.43560143  0.68630856  0.58770913     0.35400
C2497       C  0.47792532  0.76876331  0.66236990     0.38900
C2498       C  0.39466516  0.65052489  0.63211918    -0.04700
C2499       C  0.37788175  0.61992751  0.63255204     0.02500
C2500       C  0.39121857  0.60381411  0.63673156    -0.04300
C2501       C  0.42136527  0.61893272  0.64164490    -0.00500
C2502       C  0.43833281  0.64967457  0.64028848    -0.03100
C2503       C  0.38076426  0.66677684  0.62777005     0.36200
C2504       C  0.43535249  0.60289383  0.64629048     0.39800
C2505       C  0.34703623  0.60527681  0.62735924     0.38900
C2506       C  0.46962186  0.66504459  0.64322001     0.35800
C2507       C  0.45067784  0.70791750  0.67204036     0.36500
C2508       C  0.46376697  0.74699311  0.57800974     0.39800
N2509       N  0.32264618  0.59441203  0.62275571    -0.38300
N2510       N  0.36969111  0.67971178  0.62426048    -0.39900
N2511       N  0.44651945  0.59010037  0.65003821    -0.37600
N2512       N  0.49461729  0.67739857  0.64550089    -0.40000
N2513       N  0.42673013  0.66964336  0.57259306    -0.39800
N2514       N  0.46638641  0.75491356  0.55899902    -0.37400
N2515       N  0.48570861  0.78524923  0.67758286    -0.38500
N2516       N  0.44808514  0.69985398  0.69100120    -0.40100
C2517       C  0.25399820  0.55966057  0.65803128    -0.05100
C2518       C  0.22862535  0.54930150  0.64460073     0.09100
C2519       C  0.21691387  0.52293811  0.63222389    -0.02400
C2520       C  0.23275693  0.50915513  0.63055205    -0.00700
C2521       C  0.26000186  0.52149219  0.64179341    -0.04300
C2522       C  0.26947665  0.54549550  0.65690153     0.02700
C2523       C  0.21748172  0.56871788  0.64007617     0.09500
C2524       C  0.18956995  0.51123274  0.61989359     0.35400
C2525       C  0.29602513  0.55654550  0.67028639     0.38900
C2526       C  0.22727428  0.58654941  0.62016510    -0.04700
C2527       C  0.21764784  0.60558849  0.61573432     0.02500
C2528       C  0.19852573  0.60727419  0.63145586    -0.04300
C2529       C  0.18872180  0.58938231  0.65138485    -0.00500
C2530       C  0.19805129  0.56995668  0.65557799    -0.03100
C2531       C  0.24722984  0.58515089  0.60414789     0.36200
C2532       C  0.16969760  0.59151999  0.66788982     0.39800
C2533       C  0.22661359  0.62259267  0.59449680     0.38900
C2534       C  0.18761382  0.55110261  0.67570641     0.35800
C2535       C  0.26521987  0.58608019  0.67163124     0.36500
C2536       C  0.22236086  0.48415529  0.61536174     0.39800
N2537       N  0.23371433  0.63608660  0.57755096    -0.38300
N2538       N  0.26308425  0.58394591  0.59139864    -0.39900
N2539       N  0.15459993  0.59331995  0.68108634    -0.37600
N2540       N  0.17923552  0.53594306  0.69171526    -0.40000
N2541       N  0.16770858  0.50186443  0.61012383    -0.39800
N2542       N  0.21394121  0.46431429  0.60310352    -0.37400
N2543       N  0.31724207  0.56539802  0.68089640    -0.38500
N2544       N  0.27408310  0.60719085  0.68241807    -0.40100
loop_ 
_geom_bond_atom_site_label_1 
_geom_bond_atom_site_label_2 
_geom_bond_distance 
_geom_bond_site_symmetry_2 
_ccdc_geom_bond_type 
O1          Cr19   1.959       .  S
O1            C9   1.258       .  A
O2          Cr19   1.987       .  S
O2            C3   1.259       .  A
C3            O4   1.263       .  A
C3         C2437   1.490       .  S
O4          Cr20   2.006       .  S
O5          Cr20   2.014       .  S
O5            C6   1.267       .  A
C6            O7   1.259       .  A
C6         C2416   1.484       .  S
O7          Cr21   1.963       .  S
O8          Cr21   2.022       .  S
O8            C9   1.269       .  A
C9         C2472   1.477       .  S
O10         Cr19   1.982       .  S
O10          C18   1.257       .  A
O11         Cr19   1.956       .  S
O11          C12   1.258       .  A
C12          O13   1.270       .  A
C12        C2521   1.478       .  S
O13         Cr20   2.023       .  S
O14         Cr20   1.979       .  S
O14          C15   1.261       .  A
C15          O16   1.267       .  A
C15        C2388   1.512       .  S
O16         Cr21   2.013       .  S
O17         Cr21   2.005       .  S
O17          C18   1.264       .  A
C18        C2500   1.489       .  S
Cr19         O22   1.757       .  S
Cr20         O22   1.777       .  S
Cr21         O22   1.774       .  S
O23         Cr41   1.996       .  S
O23          C31   1.265       .  A
O24         Cr41   1.955       .  S
O24          C25   1.253       .  A
C25          O26   1.269       .  A
C25        C2332   1.491       .  S
O26         Cr42   2.033       .  S
O27         Cr42   2.005       .  S
O27          C28   1.265       .  A
C28          O29   1.262       .  A
C28        C2269   1.501       .  S
O29         Cr43   1.996       .  S
O30         Cr43   1.985       .  S
O30          C31   1.262       .  A
C31        C2297   1.476       .  S
O32         Cr41   1.963       .  S
O32          C40   1.255       .  A
O33         Cr41   1.997       .  S
O33          C34   1.265       .  A
C34          O35   1.263       .  A
C34        C2360   1.489       .  S
O35         Cr42   1.993       .  S
O36         Cr42   2.028       .  S
O36          C37   1.272       .  A
C37          O38   1.261       .  A
C37        C2248   1.487       .  S
O38         Cr43   1.971       .  S
O39         Cr43   2.003       .  S
O39          C40   1.261       .  A
C40        C2528   1.478       .  S
Cr41         O44   1.760       .  S
Cr42         O44   1.776       .  S
Cr43         O44   1.770       .  S
O45         Cr63   1.979       .  S
O45          C53   1.263       .  A
O46         Cr63   1.985       .  S
O46          C47   1.258       .  A
C47          O48   1.264       .  A
C47        C2185   1.497       .  S
O48         Cr64   2.009       .  S
O49         Cr64   2.019       .  S
O49          C50   1.267       .  A
C50          O51   1.259       .  A
C50        C2164   1.481       .  S
O51         Cr65   1.968       .  S
O52         Cr65   2.016       .  S
O52          C53   1.269       .  A
C53        C2220   1.495       .  S
O54         Cr63   1.996       .  S
O54          C62   1.260       .  A
O55         Cr63   1.974       .  S
O55          C56   1.263       .  A
C56          O57   1.270       .  A
C56        C2493   1.480       .  S
O57         Cr64   2.019       .  S
O58         Cr64   1.985       .  S
O58          C59   1.262       .  A
C59          O60   1.264       .  A
C59        C2129   1.496       .  S
O60         Cr65   2.003       .  S
O61         Cr65   1.994       .  S
O61          C62   1.261       .  A
C62        C2353   1.495       .  S
Cr63         O66   1.770       .  S
Cr64         O66   1.780       .  S
Cr65         O66   1.775       .  S
O67         Cr85   2.000       .  S
O67          C75   1.262       .  A
O68         Cr85   1.971       .  S
O68          C69   1.262       .  A
C69          O70   1.272       .  A
C69        C2444   1.500       .  S
O70         Cr86   2.027       .  S
O71         Cr86   1.984       .  S
O71          C72   1.258       .  A
C72          O73   1.265       .  A
C72        C2045   1.477       .  S
O73         Cr87   1.996       .  S
O74         Cr87   1.982       .  S
O74          C75   1.260       .  A
C75        C2304   1.495       .  S
O76         Cr85   1.980       .  S
O76          C84   1.262       .  A
O77         Cr85   1.987       .  S
O77          C78   1.261       .  A
C78          O79   1.261       .  A
C78        C2108   1.493       .  S
O79         Cr86   1.997       .  S
O80         Cr86   2.025       .  S
O80          C81   1.271       .  A
C81          O82   1.261       .  A
C81        C2017   1.496       .  S
O82         Cr87   1.973       .  S
O83         Cr87   2.014       .  S
O83          C84   1.267       .  A
C84        C2080   1.502       .  S
Cr85         O88   1.760       .  S
Cr86         O88   1.776       .  S
Cr87         O88   1.766       .  S
O89        Cr107   1.958       .  S
O89          C97   1.253       .  A
O90        Cr107   1.999       .  S
O90          C91   1.264       .  A
C91          O92   1.260       .  A
C91        C2325   1.483       .  S
O92        Cr108   1.991       .  S
O93        Cr108   2.029       .  S
O93          C94   1.271       .  A
C94          O95   1.261       .  A
C94        C1968   1.492       .  S
O95        Cr109   1.971       .  S
O96        Cr109   2.027       .  S
O96          C97   1.266       .  A
C97        C2213   1.484       .  S
O98        Cr107   2.009       .  S
O98         C106   1.266       .  A
O99        Cr107   1.968       .  S
O99         C100   1.257       .  A
C100        O101   1.273       .  A
C100       C2073   1.489       .  S
O101       Cr108   2.041       .  S
O102       Cr108   1.992       .  S
O102        C103   1.265       .  A
C103        O104   1.268       .  A
C103       C1940   1.515       .  S
O104       Cr109   2.011       .  S
O105       Cr109   1.987       .  S
O105        C106   1.261       .  A
C106       C1989   1.484       .  S
Cr107       O110   1.762       .  S
Cr108       O110   1.778       .  S
Cr109       O110   1.771       .  S
O111       Cr129   1.971       .  S
O111        C119   1.258       .  A
O112       Cr129   1.996       .  S
O112        C113   1.263       .  A
C113        O114   1.265       .  A
C113       C2192   1.496       .  S
O114       Cr130   2.002       .  S
O115       Cr130   2.038       .  S
O115        C116   1.272       .  A
C116        O117   1.256       .  A
C116       C1905   1.489       .  S
O117       Cr131   1.957       .  S
O118       Cr131   2.015       .  S
O118        C119   1.266       .  A
C119       C2465   1.484       .  S
O120       Cr129   2.006       .  S
O120        C128   1.266       .  A
O121       Cr129   1.963       .  S
O121        C122   1.259       .  A
C122        O123   1.273       .  A
C122       C1996   1.494       .  S
O123       Cr130   2.036       .  S
O124       Cr130   1.991       .  S
O124        C125   1.263       .  A
C125        O126   1.265       .  A
C125       C1884   1.489       .  S
O126       Cr131   2.007       .  S
O127       Cr131   1.980       .  S
O127        C128   1.259       .  A
C128       C2101   1.488       .  S
Cr129       O132   1.759       .  S
Cr130       O132   1.776       .  S
Cr131       O132   1.769       .  S
O133       Cr151   1.988       .  S
O133        C141   1.260       .  A
O134       Cr151   2.006       .  S
O134        C135   1.267       .  A
C135        O136   1.262       .  A
C135       C1912   1.486       .  S
O136       Cr152   1.992       .  S
O137       Cr152   2.025       .  S
O137        C138   1.271       .  A
C138        O139   1.263       .  A
C138       C1772   1.496       .  S
O139       Cr153   1.973       .  S
O140       Cr153   1.989       .  S
O140        C141   1.259       .  A
C141       C1793   1.491       .  S
O142       Cr151   2.019       .  S
O142        C150   1.269       .  A
O143       Cr151   1.974       .  S
O143        C144   1.259       .  A
C144        O145   1.268       .  A
C144       C1744   1.489       .  S
O145       Cr152   2.019       .  S
O146       Cr152   2.012       .  S
O146        C147   1.265       .  A
C147        O148   1.258       .  A
C147       C1849   1.499       .  S
O148       Cr153   1.984       .  S
O149       Cr153   1.977       .  S
O149        C150   1.263       .  A
C150       C1821   1.497       .  S
Cr151       O154   1.771       .  S
Cr152       O154   1.777       .  S
Cr153       O154   1.761       .  S
O155       Cr173   1.992       .  S
O155        C163   1.262       .  A
O156       Cr173   1.999       .  S
O156        C157   1.265       .  A
C157        O158   1.262       .  A
C157       C2409   1.478       .  S
O158       Cr174   1.986       .  S
O159       Cr174   2.030       .  S
O159        C160   1.271       .  A
C160        O161   1.260       .  A
C160       C1653   1.498       .  S
O161       Cr175   1.967       .  S
O162       Cr175   1.997       .  S
O162        C163   1.262       .  A
C163       C1800   1.496       .  S
O164       Cr173   2.016       .  S
O164        C172   1.269       .  A
O165       Cr173   1.980       .  S
O165        C166   1.262       .  A
C166        O167   1.268       .  A
C166       C1632   1.496       .  S
O167       Cr174   2.014       .  S
O168       Cr174   1.990       .  S
O168        C169   1.259       .  A
C169        O170   1.261       .  A
C169       C1716   1.485       .  S
O170       Cr175   2.000       .  S
O171       Cr175   1.976       .  S
O171        C172   1.261       .  A
C172       C1681   1.488       .  S
Cr173       O176   1.767       .  S
Cr174       O176   1.773       .  S
Cr175       O176   1.766       .  S
O177       Cr195   2.034       .  S
O177        C185   1.270       .  A
O178       Cr195   1.954       .  S
O178        C179   1.253       .  A
C179        O180   1.272       .  A
C179       C1961   1.496       .  S
O180       Cr196   2.050       .  S
O181       Cr196   1.985       .  S
O181        C182   1.263       .  A
C182        O183   1.267       .  A
C182       C1660   1.494       .  S
O183       Cr197   2.011       .  S
O184       Cr197   1.951       .  S
O184        C185   1.253       .  A
C185       C1576   1.482       .  S
O186       Cr195   1.965       .  S
O186        C194   1.256       .  A
O187       Cr195   2.031       .  S
O187        C188   1.273       .  A
C188        O189   1.259       .  A
C188       C1548   1.489       .  S
O189       Cr196   1.961       .  S
O190       Cr196   2.046       .  S
O190        C191   1.276       .  A
C191        O192   1.258       .  A
C191       C1828   1.501       .  S
O192       Cr197   1.958       .  S
O193       Cr197   2.023       .  S
O193        C194   1.269       .  A
C194       C1604   1.488       .  S
Cr195       O198   1.765       .  S
Cr196       O198   1.770       .  S
Cr197       O198   1.755       .  S
O199       Cr217   2.004       .  S
O199        C207   1.266       .  A
O200       Cr217   1.962       .  S
O200        C201   1.256       .  A
C201        O202   1.270       .  A
C201       C2276   1.490       .  S
O202       Cr218   2.033       .  S
O203       Cr218   1.995       .  S
O203        C204   1.262       .  A
C204        O205   1.262       .  A
C204       C1765   1.503       .  S
O205       Cr219   1.998       .  S
O206       Cr219   1.974       .  S
O206        C207   1.262       .  A
C207       C1492   1.494       .  S
O208       Cr217   1.983       .  S
O208        C216   1.259       .  A
O209       Cr217   2.002       .  S
O209        C210   1.266       .  A
C210        O211   1.261       .  A
C210       C1457   1.501       .  S
O211       Cr218   1.975       .  S
O212       Cr218   2.040       .  S
O212        C213   1.275       .  A
C213        O214   1.258       .  A
C213       C1688   1.495       .  S
O214       Cr219   1.961       .  S
O215       Cr219   1.996       .  S
O215        C216   1.263       .  A
C216       C1513   1.495       .  S
Cr217       O220   1.766       .  S
Cr218       O220   1.773       .  S
Cr219       O220   1.761       .  S
O221       Cr239   1.981       .  S
O221        C229   1.262       .  A
O222       Cr239   1.984       .  S
O222        C223   1.260       .  A
C223        O224   1.262       .  A
C223       C2052   1.502       .  S
O224       Cr240   1.989       .  S
O225       Cr240   2.026       .  S
O225        C226   1.269       .  A
C226        O227   1.259       .  A
C226       C1429   1.493       .  S
O227       Cr241   1.969       .  S
O228       Cr241   1.997       .  S
O228        C229   1.266       .  A
C229       C1485   1.493       .  S
O230       Cr239   2.011       .  S
O230        C238   1.263       .  A
O231       Cr239   1.970       .  S
O231        C232   1.263       .  A
C232        O233   1.269       .  A
C232       C1401   1.478       .  S
O233       Cr240   2.004       .  S
O234       Cr240   1.981       .  S
O234        C235   1.258       .  A
C235        O236   1.263       .  A
C235       C1597   1.479       .  S
O236       Cr241   1.990       .  S
O237       Cr241   1.976       .  S
O237        C238   1.257       .  A
C238       C1856   1.494       .  S
Cr239       O242   1.768       .  S
Cr240       O242   1.773       .  S
Cr241       O242   1.757       .  S
O243       Cr261   1.973       .  S
O243        C251   1.258       .  A
O244       Cr261   2.007       .  S
O244        C245   1.266       .  A
C245        O246   1.264       .  A
C245       C2157   1.490       .  S
O246       Cr262   1.993       .  S
O247       Cr262   2.030       .  S
O247        C248   1.269       .  A
C248        O249   1.256       .  A
C248       C1436   1.494       .  S
O249       Cr263   1.964       .  S
O250       Cr263   2.004       .  S
O250        C251   1.265       .  A
C251       C1569   1.473       .  S
O252       Cr261   2.023       .  S
O252        C260   1.266       .  A
O253       Cr261   1.975       .  S
O253        C254   1.262       .  A
C254        O255   1.268       .  A
C254       C1380   1.476       .  S
O255       Cr262   2.010       .  S
O256       Cr262   1.985       .  S
O256        C257   1.260       .  A
C257        O258   1.266       .  A
C257       C1520   1.486       .  S
O258       Cr263   2.004       .  S
O259       Cr263   1.966       .  S
O259        C260   1.254       .  A
C260       C1709   1.497       .  S
Cr261       O264   1.769       .  S
Cr262       O264   1.777       .  S
Cr263       O264   1.763       .  S
O265       Cr283   1.997       .  S
O265        C273   1.261       .  A
O266       Cr283   1.961       .  S
O266        C267   1.259       .  A
C267        O268   1.272       .  A
C267       C1261   1.508       .  S
O268       Cr284   2.025       .  S
O269       Cr284   1.989       .  S
O269        C270   1.263       .  A
C270        O271   1.264       .  A
C270       C1240   1.491       .  S
O271       Cr285   1.996       .  S
O272       Cr285   1.998       .  S
O272        C273   1.262       .  A
C273       C1289   1.486       .  S
O274       Cr283   1.972       .  S
O274        C282   1.261       .  A
O275       Cr283   1.994       .  S
O275        C276   1.259       .  A
C276        O277   1.259       .  A
C276       C1345   1.482       .  S
O277       Cr284   1.993       .  S
O278       Cr284   2.015       .  S
O278        C279   1.268       .  A
C279        O280   1.261       .  A
C279       C1737   1.492       .  S
O280       Cr285   1.975       .  S
O281       Cr285   2.002       .  S
O281        C282   1.266       .  A
C282       C1317   1.478       .  S
Cr283       O286   1.766       .  S
Cr284       O286   1.772       .  S
Cr285       O286   1.768       .  S
O287       Cr305   1.966       .  S
O287        C295   1.258       .  A
O288       Cr305   1.999       .  S
O288        C289   1.263       .  A
C289        O290   1.262       .  A
C289       C1156   1.481       .  S
O290       Cr306   1.993       .  S
O291       Cr306   2.022       .  S
O291        C292   1.267       .  A
C292        O293   1.258       .  A
C292       C1121   1.481       .  S
O293       Cr307   1.968       .  S
O294       Cr307   2.024       .  S
O294        C295   1.268       .  A
C295       C1296   1.483       .  S
O296       Cr305   1.994       .  S
O296        C304   1.262       .  A
O297       Cr305   1.967       .  S
O297        C298   1.255       .  A
C298        O299   1.269       .  A
C298       C1205   1.485       .  S
O299       Cr306   2.035       .  S
O300       Cr306   1.983       .  S
O300        C301   1.263       .  A
C301        O302   1.268       .  A
C301       C1625   1.483       .  S
O302       Cr307   2.014       .  S
O303       Cr307   1.977       .  S
O303        C304   1.258       .  A
C304       C1177   1.478       .  S
Cr305       O308   1.767       .  S
Cr306       O308   1.781       .  S
Cr307       O308   1.777       .  S
O309       Cr327   1.974       .  S
O309        C317   1.259       .  A
O310       Cr327   1.993       .  S
O310        C311   1.263       .  A
C311        O312   1.263       .  A
C311       C1065   1.492       .  S
O312       Cr328   1.995       .  S
O313       Cr328   2.020       .  S
O313        C314   1.268       .  A
C314        O315   1.261       .  A
C314       C1016   1.496       .  S
O315       Cr329   1.976       .  S
O316       Cr329   2.012       .  S
O316        C317   1.265       .  A
C317       C1044   1.487       .  S
O318       Cr327   2.001       .  S
O318        C326   1.264       .  A
O319       Cr327   1.968       .  S
O319        C320   1.257       .  A
C320        O321   1.267       .  A
C320       C1093   1.480       .  S
O321       Cr328   2.020       .  S
O322       Cr328   1.978       .  S
O322        C323   1.261       .  A
C323        O324   1.264       .  A
C323       C1373   1.500       .  S
O324       Cr329   2.004       .  S
O325       Cr329   1.999       .  S
O325        C326   1.264       .  A
C326       C1212   1.494       .  S
Cr327       O330   1.761       .  S
Cr328       O330   1.775       .  S
Cr329       O330   1.772       .  S
O331       Cr349   1.958       .  S
O331        C339   1.256       .  A
O332       Cr349   1.989       .  S
O332        C333   1.261       .  A
C333        O334   1.262       .  A
C333       C1268   1.483       .  S
O334       Cr350   1.993       .  S
O335       Cr350   2.020       .  S
O335        C336   1.270       .  A
C336        O337   1.258       .  A
C336        C953   1.483       .  S
O337       Cr351   1.956       .  S
O338       Cr351   2.010       .  S
O338        C339   1.263       .  A
C339        C981   1.479       .  S
O340       Cr349   1.998       .  S
O340        C348   1.264       .  A
O341       Cr349   1.954       .  S
O341        C342   1.256       .  A
C342        O343   1.268       .  A
C342       C1184   1.472       .  S
O343       Cr350   2.021       .  S
O344       Cr350   1.982       .  S
O344        C345   1.261       .  A
C345        O346   1.263       .  A
C345       C1464   1.492       .  S
O346       Cr351   2.002       .  S
O347       Cr351   1.980       .  S
O347        C348   1.260       .  A
C348       C1100   1.475       .  S
Cr349       O352   1.758       .  S
Cr350       O352   1.776       .  S
Cr351       O352   1.772       .  S
O353       Cr371   2.000       .  S
O353        C361   1.264       .  A
O354       Cr371   1.960       .  S
O354        C355   1.257       .  A
C355        O356   1.273       .  A
C355       C1149   1.490       .  S
O356       Cr372   2.040       .  S
O357       Cr372   1.980       .  S
O357        C358   1.260       .  A
C358        O359   1.264       .  A
C358        C897   1.470       .  S
O359       Cr373   1.996       .  S
O360       Cr373   1.987       .  S
O360        C361   1.261       .  A
C361       C1037   1.504       .  S
O362       Cr371   1.969       .  S
O362        C370   1.257       .  A
O363       Cr371   1.993       .  S
O363        C364   1.261       .  A
C364        O365   1.255       .  A
C364       C1324   1.464       .  S
O365       Cr372   1.973       .  S
O366       Cr372   2.020       .  S
O366        C367   1.271       .  A
C367        O368   1.262       .  A
C367       C1541   1.489       .  S
O368       Cr373   1.971       .  S
O369       Cr373   2.022       .  S
O369        C370   1.268       .  A
C370        C925   1.488       .  S
Cr371       O374   1.756       .  S
Cr372       O374   1.771       .  S
Cr373       O374   1.762       .  S
O375       Cr393   1.968       .  S
O375        C383   1.261       .  A
O376       Cr393   1.987       .  S
O376        C377   1.261       .  A
C377        O378   1.264       .  A
C377       C1072   1.488       .  S
O378       Cr394   1.998       .  S
O379       Cr394   2.030       .  S
O379        C380   1.271       .  A
C380        O381   1.257       .  A
C380        C876   1.485       .  S
O381       Cr395   1.957       .  S
O382       Cr395   2.005       .  S
O382        C383   1.266       .  A
C383        C988   1.480       .  S
O384       Cr393   1.996       .  S
O384        C392   1.261       .  A
O385       Cr393   1.965       .  S
O385        C386   1.260       .  A
C386        O387   1.270       .  A
C386        C932   1.484       .  S
O387       Cr394   2.023       .  S
O388       Cr394   1.974       .  S
O388        C389   1.258       .  A
C389        O390   1.262       .  A
C389       C1408   1.497       .  S
O390       Cr395   1.998       .  S
O391       Cr395   1.994       .  S
O391        C392   1.262       .  A
C392       C1352   1.491       .  S
Cr393       O396   1.753       .  S
Cr394       O396   1.770       .  S
Cr395       O396   1.766       .  S
O397       Cr415   1.980       .  S
O397        C405   1.259       .  A
O398       Cr415   2.009       .  S
O398        C399   1.268       .  A
C399        O400   1.262       .  A
C399       C1128   1.485       .  S
O400       Cr416   1.992       .  S
O401       Cr416   2.036       .  S
O401        C402   1.270       .  A
C402        O403   1.252       .  A
C402        C757   1.497       .  S
O403       Cr417   1.953       .  S
O404       Cr417   2.000       .  S
O404        C405   1.264       .  A
C405        C785   1.479       .  S
O406       Cr415   2.020       .  S
O406        C414   1.267       .  A
O407       Cr415   1.971       .  S
O407        C408   1.259       .  A
C408        O409   1.272       .  A
C408       C2381   1.489       .  S
O409       Cr416   2.027       .  S
O410       Cr416   1.986       .  S
O410        C411   1.262       .  A
C411        O412   1.267       .  A
C411        C848   1.502       .  S
O412       Cr417   2.007       .  S
O413       Cr417   1.965       .  S
O413        C414   1.257       .  A
C414        C813   1.484       .  S
Cr415       O418   1.772       .  S
Cr416       O418   1.779       .  S
Cr417       O418   1.757       .  S
O419       Cr437   2.017       .  S
O419        C427   1.264       .  A
O420       Cr437   1.960       .  S
O420        C421   1.259       .  A
C421        O422   1.270       .  A
C421        C869   1.480       .  S
O422       Cr438   2.024       .  S
O423       Cr438   1.991       .  S
O423        C424   1.262       .  A
C424        O425   1.261       .  A
C424        C764   1.478       .  S
O425       Cr439   1.990       .  S
O426       Cr439   1.966       .  S
O426        C427   1.256       .  A
C427        C680   1.483       .  S
O428       Cr437   1.980       .  S
O428        C436   1.260       .  A
O429       Cr437   2.011       .  S
O429        C430   1.266       .  A
C430        O431   1.263       .  A
C430       C2024   1.501       .  S
O431       Cr438   1.988       .  S
O432       Cr438   2.026       .  S
O432        C433   1.268       .  A
C433        O434   1.256       .  A
C433        C736   1.485       .  S
O434       Cr439   1.957       .  S
O435       Cr439   1.994       .  S
O435        C436   1.264       .  A
C436        C701   1.470       .  S
Cr437       O440   1.773       .  S
Cr438       O440   1.777       .  S
Cr439       O440   1.760       .  S
O441       Cr459   2.026       .  S
O441        C449   1.269       .  A
O442       Cr459   1.962       .  S
O442        C443   1.257       .  A
C443        O444   1.266       .  A
C443        C960   1.476       .  S
O444       Cr460   2.014       .  S
O445       Cr460   2.004       .  S
O445        C446   1.266       .  A
C446        O447   1.262       .  A
C446        C624   1.494       .  S
O447       Cr461   1.994       .  S
O448       Cr461   1.965       .  S
O448        C449   1.258       .  A
C449        C673   1.489       .  S
O450       Cr459   1.987       .  S
O450        C458   1.258       .  A
O451       Cr459   2.009       .  S
O451        C452   1.267       .  A
C452        O453   1.265       .  A
C452       C2241   1.503       .  S
O453       Cr460   1.991       .  S
O454       Cr460   2.019       .  S
O454        C455   1.268       .  A
C455        O456   1.258       .  A
C455        C645   1.486       .  S
O456       Cr461   1.961       .  S
O457       Cr461   1.999       .  S
O457        C458   1.262       .  A
C458        C841   1.483       .  S
Cr459       O462   1.772       .  S
Cr460       O462   1.778       .  S
Cr461       O462   1.760       .  S
O463       Cr481   1.998       .  S
O463        C471   1.264       .  A
O464       Cr481   1.994       .  S
O464        C465   1.261       .  A
C465        O466   1.261       .  A
C465       C1009   1.480       .  S
O466       Cr482   1.997       .  S
O467       Cr482   2.014       .  S
O467        C468   1.266       .  A
C468        O469   1.256       .  A
C468        C561   1.480       .  S
O469       Cr483   1.954       .  S
O470       Cr483   2.003       .  S
O470        C471   1.266       .  A
C471        C596   1.486       .  S
O472       Cr481   2.016       .  S
O472        C480   1.263       .  A
O473       Cr481   1.981       .  S
O473        C474   1.265       .  A
C474        O475   1.271       .  A
C474       C2136   1.486       .  S
O475       Cr482   2.021       .  S
O476       Cr482   1.988       .  S
O476        C477   1.262       .  A
C477        O478   1.261       .  A
C477        C820   1.484       .  S
O478       Cr483   1.992       .  S
O479       Cr483   1.964       .  S
O479        C480   1.253       .  A
C480        C652   1.474       .  S
Cr481       O484   1.779       .  S
Cr482       O484   1.778       .  S
Cr483       O484   1.764       .  S
O485       Cr503   2.035       .  S
O485        C493   1.271       .  A
O486       Cr503   1.961       .  S
O486        C487   1.258       .  A
C487        O488   1.267       .  A
C487        C904   1.486       .  S
O488       Cr504   2.015       .  S
O489       Cr504   1.995       .  S
O489        C490   1.262       .  A
C490        O491   1.261       .  A
C490        C617   1.486       .  S
O491       Cr505   1.994       .  S
O492       Cr505   1.961       .  S
O492        C493   1.257       .  A
C493        C589   1.492       .  S
O494       Cr503   1.985       .  S
O494        C502   1.259       .  A
O495       Cr503   2.027       .  S
O495        C496   1.270       .  A
C496        O497   1.259       .  A
C496       C1933   1.501       .  S
O497       Cr504   1.974       .  S
O498       Cr504   2.010       .  S
O498        C499   1.267       .  A
C499        O500   1.261       .  A
C499        C708   1.474       .  S
O500       Cr505   1.965       .  S
O501       Cr505   2.008       .  S
O501        C502   1.264       .  A
C502        C533   1.484       .  S
Cr503       O506   1.773       .  S
Cr504       O506   1.776       .  S
Cr505       O506   1.763       .  S
O507       Cr525   2.008       .  S
O507        C515   1.265       .  A
O508       Cr525   1.985       .  S
O508        C509   1.262       .  A
C509        O510   1.264       .  A
C509       C1233   1.487       .  S
O510       Cr526   2.003       .  S
O511       Cr526   2.024       .  S
O511        C512   1.272       .  A
C512        O513   1.261       .  A
C512        C568   1.490       .  S
O513       Cr527   1.967       .  S
O514       Cr527   1.981       .  S
O514        C515   1.258       .  A
C515        C792   1.491       .  S
O516       Cr525   2.004       .  S
O516        C524   1.266       .  A
O517       Cr525   1.977       .  S
O517        C518   1.262       .  A
C518        O519   1.268       .  A
C518       C1877   1.515       .  S
O519       Cr526   2.010       .  S
O520       Cr526   2.009       .  S
O520        C521   1.263       .  A
C521        O522   1.256       .  A
C521        C540   1.496       .  S
O522       Cr527   1.983       .  S
O523       Cr527   1.975       .  S
O523        C524   1.262       .  A
C524        C729   1.485       .  S
Cr525       O528   1.771       .  S
Cr526       O528   1.774       .  S
Cr527       O528   1.762       .  S
C529        C530   1.410       .  A
C529        C534   1.408       .  A
C529        C547   1.452       .  S
C530        C535   1.497       .  S
C530        C531   1.412       .  A
C531        C532   1.414       .  A
C531        C536   1.449       .  S
C532        C533   1.413       .  A
C532        C548   1.450       .  S
C533        C534   1.414       .  A
C534        C537   1.451       .  S
C535        C538   1.411       .  A
C535        C542   1.407       .  A
C536        N553   1.157       .  T
C537        N555   1.157       .  T
C538        C539   1.416       .  A
C538        C543   1.449       .  S
C539        C540   1.417       .  A
C539        C545   1.449       .  S
C540        C541   1.423       .  A
C541        C542   1.408       .  A
C541        C544   1.453       .  S
C542        C546   1.454       .  S
C543        N550   1.157       .  T
C544        N551   1.158       .  T
C545        N549   1.157       .  T
C546        N552   1.157       .  T
C547        N556   1.157       .  T
C548        N554   1.157       .  T
C557        C558   1.410       .  A
C557        C562   1.405       .  A
C557        C575   1.453       .  S
C558        C563   1.493   1_556  S
C558        C559   1.411       .  A
C559        C560   1.413       .  A
C559        C564   1.449       .  S
C560        C561   1.412       .  A
C560        C576   1.450       .  S
C561        C562   1.416       .  A
C562        C565   1.453       .  S
C563        C566   1.409       .  A
C563        C570   1.409       .  A
C564        N581   1.157       .  T
C565        N583   1.158       .  T
C566        C567   1.409       .  A
C566        C571   1.451   1_554  S
C567        C568   1.416       .  A
C567        C573   1.451       .  S
C568        C569   1.419       .  A
C569        C570   1.411       .  A
C569        C572   1.451       .  S
C570        C574   1.451       .  S
C571        N578   1.157       .  T
C572        N579   1.157       .  T
C573        N577   1.157       .  T
C574        N580   1.157       .  T
C575        N584   1.157   1_556  T
C576        N582   1.157       .  T
C585        C586   1.412       .  A
C585        C590   1.406       .  A
C585        C603   1.454   1_554  S
C586        C591   1.501   1_554  S
C586        C587   1.412       .  A
C587        C588   1.419       .  A
C587        C592   1.449       .  S
C588        C589   1.416       .  A
C588        C604   1.449       .  S
C589        C590   1.417       .  A
C590        C593   1.454       .  S
C591        C594   1.412       .  A
C591        C598   1.410       .  A
C592        N609   1.157       .  T
C593        N611   1.157       .  T
C594        C595   1.416       .  A
C594        C599   1.449       .  S
C595        C596   1.413       .  A
C595        C601   1.450       .  S
C596        C597   1.413       .  A
C597        C598   1.409       .  A
C597        C600   1.448       .  S
C598        C602   1.452   1_556  S
C599        N606   1.157       .  T
C600        N607   1.157       .  T
C601        N605   1.157       .  T
C602        N608   1.157       .  T
C603        N612   1.157       .  T
C604        N610   1.157       .  T
C613        C614   1.412       .  A
C613        C618   1.415       .  A
C613        C631   1.449       .  S
C614        C619   1.501   1_554  S
C614        C615   1.412       .  A
C615        C616   1.410       .  A
C615        C620   1.452   1_554  S
C616        C617   1.413       .  A
C616        C632   1.451       .  S
C617        C618   1.414       .  A
C618        C621   1.450       .  S
C619        C622   1.412       .  A
C619        C626   1.409       .  A
C620        N637   1.157       .  T
C621        N639   1.157       .  T
C622        C623   1.417       .  A
C622        C627   1.449       .  S
C623        C624   1.416       .  A
C623        C629   1.450       .  S
C624        C625   1.419       .  A
C625        C626   1.409       .  A
C625        C628   1.450       .  S
C626        C630   1.453   1_556  S
C627        N634   1.157       .  T
C628        N635   1.157       .  T
C629        N633   1.157       .  T
C630        N636   1.157       .  T
C631        N640   1.157       .  T
C632        N638   1.157       .  T
C641        C642   1.409       .  A
C641        C646   1.404       .  A
C641        C659   1.453       .  S
C642        C647   1.489       .  S
C642        C643   1.408       .  A
C643        C644   1.411       .  A
C643        C648   1.450       .  S
C644        C645   1.416       .  A
C644        C660   1.449       .  S
C645        C646   1.418       .  A
C646        C649   1.453       .  S
C647        C650   1.411       .  A
C647        C654   1.408       .  A
C648        N665   1.157       .  T
C649        N667   1.157       .  T
C650        C651   1.409       .  A
C650        C655   1.450       .  S
C651        C652   1.411       .  A
C651        C657   1.451       .  S
C652        C653   1.412       .  A
C653        C654   1.405       .  A
C653        C656   1.447       .  S
C654        C658   1.453       .  S
C655        N662   1.157       .  T
C656        N663   1.156       .  T
C657        N661   1.157       .  T
C658        N664   1.157       .  T
C659        N668   1.157       .  T
C660        N666   1.157       .  T
C669        C670   1.409   1_556  A
C669        C674   1.411       .  A
C669        C687   1.449   1_556  S
C670        C675   1.494       .  S
C670        C671   1.410   1_554  A
C671        C672   1.411       .  A
C671        C676   1.451       .  S
C672        C673   1.414       .  A
C672        C688   1.447       .  S
C673        C674   1.417       .  A
C674        C677   1.451       .  S
C675        C678   1.411       .  A
C675        C682   1.410       .  A
C676        N693   1.157       .  T
C677        N695   1.158       .  T
C678        C679   1.416       .  A
C678        C683   1.449       .  S
C679        C680   1.414       .  A
C679        C685   1.450       .  S
C680        C681   1.414       .  A
C681        C682   1.404       .  A
C681        C684   1.453       .  S
C682        C686   1.452       .  S
C683        N690   1.157       .  T
C684        N691   1.157       .  T
C685        N689   1.157       .  T
C686        N692   1.157       .  T
C687        N696   1.157       .  T
C688        N694   1.156       .  T
C697        C698   1.409       .  A
C697        C702   1.409       .  A
C697        C715   1.450       .  S
C698        C703   1.487       .  S
C698        C699   1.410       .  A
C699        C700   1.405       .  A
C699        C704   1.452       .  S
C700        C701   1.410       .  A
C700        C716   1.451       .  S
C701        C702   1.411       .  A
C702        C705   1.450       .  S
C703        C706   1.408       .  A
C703        C710   1.411       .  A
C704        N721   1.157       .  T
C705        N723   1.157       .  T
C706        C707   1.410       .  A
C706        C711   1.449       .  S
C707        C708   1.412       .  A
C707        C713   1.450       .  S
C708        C709   1.412       .  A
C709        C710   1.405       .  A
C709        C712   1.452       .  S
C710        C714   1.452       .  S
C711        N718   1.157       .  T
C712        N719   1.158       .  T
C713        N717   1.157       .  T
C714        N720   1.157       .  T
C715        N724   1.157       .  T
C716        N722   1.157       .  T
C725        C726   1.409       .  A
C725        C730   1.409       .  A
C725        C743   1.451       .  S
C726        C731   1.493       .  S
C726        C727   1.410       .  A
C727        C728   1.410       .  A
C727        C732   1.450       .  S
C728        C729   1.414       .  A
C728        C744   1.452       .  S
C729        C730   1.417       .  A
C730        C733   1.452       .  S
C731        C734   1.411       .  A
C731        C738   1.409       .  A
C732        N749   1.157       .  T
C733        N751   1.157       .  T
C734        C735   1.415       .  A
C734        C739   1.449       .  S
C735        C736   1.413       .  A
C735        C741   1.449       .  S
C736        C737   1.417       .  A
C737        C738   1.405       .  A
C737        C740   1.453       .  S
C738        C742   1.454       .  S
C739        N746   1.157       .  T
C740        N747   1.158       .  T
C741        N745   1.157       .  T
C742        N748   1.157       .  T
C743        N752   1.157       .  T
C744        N750   1.157       .  T
C753        C754   1.409   1_556  A
C753        C758   1.416       .  A
C753        C771   1.449       .  S
C754        C759   1.495       .  S
C754        C755   1.407       .  A
C755        C756   1.406   1_554  A
C755        C760   1.454       .  S
C756        C757   1.425       .  A
C756        C772   1.454       .  S
C757        C758   1.417       .  A
C758        C761   1.449       .  S
C759        C762   1.411       .  A
C759        C766   1.411       .  A
C760        N777   1.157       .  T
C761        N779   1.157       .  T
C762        C763   1.412       .  A
C762        C767   1.450       .  S
C763        C764   1.412       .  A
C763        C769   1.451       .  S
C764        C765   1.412       .  A
C765        C766   1.409       .  A
C765        C768   1.451       .  S
C766        C770   1.451       .  S
C767        N774   1.157       .  T
C768        N775   1.157       .  T
C769        N773   1.157       .  T
C770        N776   1.157   1_554  T
C771        N780   1.157   1_556  T
C772        N778   1.158       .  T
C781        C782   1.412       .  A
C781        C786   1.411       .  A
C781        C799   1.449       .  S
C782        C787   1.496   1_556  S
C782        C783   1.412       .  A
C783        C784   1.408       .  A
C783        C788   1.451   1_556  S
C784        C785   1.411       .  A
C784        C800   1.450       .  S
C785        C786   1.410       .  A
C786        C789   1.450       .  S
C787        C790   1.409       .  A
C787        C794   1.411       .  A
C788        N805   1.157       .  T
C789        N807   1.157       .  T
C790        C791   1.405       .  A
C790        C795   1.455   1_554  S
C791        C792   1.421       .  A
C791        C797   1.453       .  S
C792        C793   1.416       .  A
C793        C794   1.416       .  A
C793        C796   1.449       .  S
C794        C798   1.449       .  S
C795        N802   1.158       .  T
C796        N803   1.157       .  T
C797        N801   1.157       .  T
C798        N804   1.157       .  T
C799        N808   1.157       .  T
C800        N806   1.157       .  T
C809        C810   1.412       .  A
C809        C814   1.415       .  A
C809        C827   1.449       .  S
C810        C815   1.497       .  S
C810        C811   1.411       .  A
C811        C812   1.406       .  A
C811        C816   1.453       .  S
C812        C813   1.415       .  A
C812        C828   1.453       .  S
C813        C814   1.414       .  A
C814        C817   1.450       .  S
C815        C818   1.410       .  A
C815        C822   1.411       .  A
C816        N833   1.157       .  T
C817        N835   1.157       .  T
C818        C819   1.409       .  A
C818        C823   1.452       .  S
C819        C820   1.414       .  A
C819        C825   1.449       .  S
C820        C821   1.414       .  A
C821        C822   1.413       .  A
C821        C824   1.450       .  S
C822        C826   1.450       .  S
C823        N830   1.157       .  T
C824        N831   1.157       .  T
C825        N829   1.156       .  T
C826        N832   1.157       .  T
C827        N836   1.157       .  T
C828        N834   1.157       .  T
C837        C838   1.412       .  A
C837        C842   1.414       .  A
C837        C855   1.449       .  S
C838        C843   1.496       .  S
C838        C839   1.409       .  A
C839        C840   1.408       .  A
C839        C844   1.451       .  S
C840        C841   1.412       .  A
C840        C856   1.449       .  S
C841        C842   1.412       .  A
C842        C845   1.450       .  S
C843        C846   1.408       .  A
C843        C850   1.408       .  A
C844        N861   1.157       .  T
C845        N863   1.157       .  T
C846        C847   1.415       .  A
C846        C851   1.450       .  S
C847        C848   1.421       .  A
C847        C853   1.448       .  S
C848        C849   1.422       .  A
C849        C850   1.410       .  A
C849        C852   1.451       .  S
C850        C854   1.453       .  S
C851        N858   1.157       .  T
C852        N859   1.157       .  T
C853        N857   1.157       .  T
C854        N860   1.157       .  T
C855        N864   1.157       .  T
C856        N862   1.157       .  T
C865        C866   1.413       .  A
C865        C870   1.411       .  A
C865        C883   1.450       .  S
C866        C871   1.495   1_455  S
C866        C867   1.410       .  A
C867        C868   1.407       .  A
C867        C872   1.451       .  S
C868        C869   1.413       .  A
C868        C884   1.451       .  S
C869        C870   1.413       .  A
C870        C873   1.451       .  S
C871        C874   1.410       .  A
C871        C878   1.412       .  A
C872        N889   1.157       .  T
C873        N891   1.157       .  T
C874        C875   1.404       .  A
C874        C879   1.454   1_655  S
C875        C876   1.417       .  A
C875        C881   1.453       .  S
C876        C877   1.413       .  A
C877        C878   1.415       .  A
C877        C880   1.449       .  S
C878        C882   1.449       .  S
C879        N886   1.157       .  T
C880        N887   1.157       .  T
C881        N885   1.157       .  T
C882        N888   1.157       .  T
C883        N892   1.157       .  T
C884        N890   1.157       .  T
C893        C894   1.412       .  A
C893        C898   1.409       .  A
C893        C911   1.450       .  S
C894        C899   1.490   1_545  S
C894        C895   1.410       .  A
C895        C896   1.407       .  A
C895        C900   1.451       .  S
C896        C897   1.411       .  A
C896        C912   1.452       .  S
C897        C898   1.408       .  A
C898        C901   1.451       .  S
C899        C902   1.409       .  A
C899        C906   1.408       .  A
C900        N917   1.157       .  T
C901        N919   1.157       .  T
C902        C903   1.404       .  A
C902        C907   1.454   1_565  S
C903        C904   1.417       .  A
C903        C909   1.453       .  S
C904        C905   1.417       .  A
C905        C906   1.413       .  A
C905        C908   1.450       .  S
C906        C910   1.449       .  S
C907        N914   1.157       .  T
C908        N915   1.157       .  T
C909        N913   1.157       .  T
C910        N916   1.157       .  T
C911        N920   1.157       .  T
C912        N918   1.157       .  T
C921        C922   1.410       .  A
C921        C926   1.414       .  A
C921        C939   1.449       .  S
C922        C927   1.495       .  S
C922        C923   1.409       .  A
C923        C924   1.408       .  A
C923        C928   1.453       .  S
C924        C925   1.418       .  A
C924        C940   1.452       .  S
C925        C926   1.415       .  A
C926        C929   1.450       .  S
C927        C930   1.411       .  A
C927        C934   1.410       .  A
C928        N945   1.157       .  T
C929        N947   1.157       .  T
C930        C931   1.410       .  A
C930        C935   1.451       .  S
C931        C932   1.413       .  A
C931        C937   1.450       .  S
C932        C933   1.415       .  A
C933        C934   1.410       .  A
C933        C936   1.452       .  S
C934        C938   1.450       .  S
C935        N942   1.157       .  T
C936        N943   1.157       .  T
C937        N941   1.157       .  T
C938        N944   1.157       .  T
C939        N948   1.157       .  T
C940        N946   1.157       .  T
C949        C950   1.411       .  A
C949        C954   1.411       .  A
C949        C967   1.450       .  S
C950        C955   1.492   1_655  S
C950        C951   1.410       .  A
C951        C952   1.407       .  A
C951        C956   1.452       .  S
C952        C953   1.415       .  A
C952        C968   1.453       .  S
C953        C954   1.415       .  A
C954        C957   1.451       .  S
C955        C958   1.412       .  A
C955        C962   1.411       .  A
C956        N973   1.157   1_655  T
C957        N975   1.157       .  T
C958        C959   1.413       .  A
C958        C963   1.449       .  S
C959        C960   1.411       .  A
C959        C965   1.450       .  S
C960        C961   1.413       .  A
C961        C962   1.404       .  A
C961        C964   1.453       .  S
C962        C966   1.453       .  S
C963        N970   1.157       .  T
C964        N971   1.157       .  T
C965        N969   1.157       .  T
C966        N972   1.157   1_455  T
C967        N976   1.157   1_655  T
C968        N974   1.158       .  T
C977        C978   1.410       .  A
C977        C982   1.402       .  A
C977        C995   1.454       .  S
C978        C983   1.485   1_556  S
C978        C979   1.407       .  A
C979        C980   1.411       .  A
C979        C984   1.449       .  S
C980        C981   1.416       .  A
C980        C996   1.450       .  S
C981        C982   1.415       .  A
C982        C985   1.454       .  S
C983        C986   1.408       .  A
C983        C990   1.410       .  A
C984       N1001   1.157       .  T
C985       N1003   1.158       .  T
C986        C987   1.406       .  A
C986        C991   1.449   1_554  S
C987        C988   1.412       .  A
C987        C993   1.451       .  S
C988        C989   1.414       .  A
C989        C990   1.407       .  A
C989        C992   1.451       .  S
C990        C994   1.451       .  S
C991        N998   1.157       .  T
C992        N999   1.157       .  T
C993        N997   1.157       .  T
C994       N1000   1.157       .  T
C995       N1004   1.157   1_556  T
C996       N1002   1.157       .  T
C1005      C1006   1.411       .  A
C1005      C1010   1.410       .  A
C1005      C1023   1.449       .  S
C1006      C1011   1.497   1_565  S
C1006      C1007   1.410       .  A
C1007      C1008   1.411       .  A
C1007      C1012   1.449       .  S
C1008      C1009   1.410       .  A
C1008      C1024   1.447       .  S
C1009      C1010   1.411       .  A
C1010      C1013   1.450       .  S
C1011      C1014   1.411       .  A
C1011      C1018   1.409       .  A
C1012      N1029   1.157   1_565  T
C1013      N1031   1.157       .  T
C1014      C1015   1.408       .  A
C1014      C1019   1.454       .  S
C1015      C1016   1.418       .  A
C1015      C1021   1.452       .  S
C1016      C1017   1.420       .  A
C1017      C1018   1.417       .  A
C1017      C1020   1.450       .  S
C1018      C1022   1.449       .  S
C1019      N1026   1.157   1_545  T
C1020      N1027   1.157       .  T
C1021      N1025   1.157       .  T
C1022      N1028   1.157       .  T
C1023      N1032   1.157   1_565  T
C1024      N1030   1.156       .  T
C1033      C1034   1.408       .  A
C1033      C1038   1.415       .  A
C1033      C1051   1.450       .  S
C1034      C1039   1.495   1_554  S
C1034      C1035   1.408       .  A
C1035      C1036   1.405       .  A
C1035      C1040   1.455   1_554  S
C1036      C1037   1.425       .  A
C1036      C1052   1.453       .  S
C1037      C1038   1.425       .  A
C1038      C1041   1.451       .  S
C1039      C1042   1.409       .  A
C1039      C1046   1.410       .  A
C1040      N1057   1.157       .  T
C1041      N1059   1.158       .  T
C1042      C1043   1.409       .  A
C1042      C1047   1.451       .  S
C1043      C1044   1.416       .  A
C1043      C1049   1.449       .  S
C1044      C1045   1.414       .  A
C1045      C1046   1.410       .  A
C1045      C1048   1.451       .  S
C1046      C1050   1.450   1_556  S
C1047      N1054   1.157       .  T
C1048      N1055   1.157       .  T
C1049      N1053   1.157       .  T
C1050      N1056   1.157       .  T
C1051      N1060   1.157       .  T
C1052      N1058   1.157       .  T
C1061      C1062   1.409       .  A
C1061      C1066   1.407       .  A
C1061      C1079   1.453   1_556  S
C1062      C1067   1.496   1_556  S
C1062      C1063   1.409       .  A
C1063      C1064   1.415       .  A
C1063      C1068   1.449       .  S
C1064      C1065   1.417       .  A
C1064      C1080   1.449       .  S
C1065      C1066   1.419       .  A
C1066      C1069   1.452       .  S
C1067      C1070   1.410       .  A
C1067      C1074   1.408       .  A
C1068      N1085   1.157       .  T
C1069      N1087   1.157       .  T
C1070      C1071   1.416       .  A
C1070      C1075   1.449       .  S
C1071      C1072   1.416       .  A
C1071      C1077   1.450       .  S
C1072      C1073   1.417       .  A
C1073      C1074   1.405       .  A
C1073      C1076   1.452       .  S
C1074      C1078   1.452   1_554  S
C1075      N1082   1.157       .  T
C1076      N1083   1.157       .  T
C1077      N1081   1.157       .  T
C1078      N1084   1.157       .  T
C1079      N1088   1.157       .  T
C1080      N1086   1.157       .  T
C1089      C1090   1.413       .  A
C1089      C1094   1.408       .  A
C1089      C1107   1.452       .  S
C1090      C1095   1.496       .  S
C1090      C1091   1.411       .  A
C1091      C1092   1.414       .  A
C1091      C1096   1.449       .  S
C1092      C1093   1.412       .  A
C1092      C1108   1.449       .  S
C1093      C1094   1.411       .  A
C1094      C1097   1.451       .  S
C1095      C1098   1.412       .  A
C1095      C1102   1.412       .  A
C1096      N1113   1.157       .  T
C1097      N1115   1.157       .  T
C1098      C1099   1.411       .  A
C1098      C1103   1.449       .  S
C1099      C1100   1.411       .  A
C1099      C1105   1.451       .  S
C1100      C1101   1.410       .  A
C1101      C1102   1.409       .  A
C1101      C1104   1.451       .  S
C1102      C1106   1.451       .  S
C1103      N1110   1.157       .  T
C1104      N1111   1.157       .  T
C1105      N1109   1.157       .  T
C1106      N1112   1.157       .  T
C1107      N1116   1.157       .  T
C1108      N1114   1.157       .  T
C1117      C1118   1.412       .  A
C1117      C1122   1.414       .  A
C1117      C1135   1.449       .  S
C1118      C1123   1.498       .  S
C1118      C1119   1.412       .  A
C1119      C1120   1.410       .  A
C1119      C1124   1.452       .  S
C1120      C1121   1.412       .  A
C1120      C1136   1.451       .  S
C1121      C1122   1.411       .  A
C1122      C1125   1.449       .  S
C1123      C1126   1.410       .  A
C1123      C1130   1.412       .  A
C1124      N1141   1.157       .  T
C1125      N1143   1.157       .  T
C1126      C1127   1.407       .  A
C1126      C1131   1.450       .  S
C1127      C1128   1.410       .  A
C1127      C1133   1.448       .  S
C1128      C1129   1.412       .  A
C1129      C1130   1.416       .  A
C1129      C1132   1.449       .  S
C1130      C1134   1.448       .  S
C1131      N1138   1.157       .  T
C1132      N1139   1.157       .  T
C1133      N1137   1.156       .  T
C1134      N1140   1.157       .  T
C1135      N1144   1.157       .  T
C1136      N1142   1.157       .  T
C1145      C1146   1.412       .  A
C1145      C1150   1.408       .  A
C1145      C1163   1.453       .  S
C1146      C1151   1.503   1_554  S
C1146      C1147   1.414       .  A
C1147      C1148   1.418       .  A
C1147      C1152   1.448       .  S
C1148      C1149   1.413       .  A
C1148      C1164   1.449       .  S
C1149      C1150   1.417       .  A
C1150      C1153   1.453       .  S
C1151      C1154   1.413       .  A
C1151      C1158   1.414       .  A
C1152      N1169   1.157       .  T
C1153      N1171   1.157       .  T
C1154      C1155   1.412       .  A
C1154      C1159   1.450       .  S
C1155      C1156   1.410       .  A
C1155      C1161   1.451       .  S
C1156      C1157   1.411       .  A
C1157      C1158   1.413       .  A
C1157      C1160   1.450       .  S
C1158      C1162   1.450   1_556  S
C1159      N1166   1.157       .  T
C1160      N1167   1.157       .  T
C1161      N1165   1.157       .  T
C1162      N1168   1.157       .  T
C1163      N1172   1.157   1_554  T
C1164      N1170   1.157       .  T
C1173      C1174   1.410       .  A
C1173      C1178   1.405       .  A
C1173      C1191   1.451       .  S
C1174      C1179   1.491       .  S
C1174      C1175   1.410       .  A
C1175      C1176   1.412       .  A
C1175      C1180   1.450       .  S
C1176      C1177   1.415       .  A
C1176      C1192   1.450       .  S
C1177      C1178   1.411       .  A
C1178      C1181   1.451       .  S
C1179      C1182   1.411       .  A
C1179      C1186   1.410       .  A
C1180      N1197   1.157       .  T
C1181      N1199   1.157       .  T
C1182      C1183   1.412       .  A
C1182      C1187   1.449       .  S
C1183      C1184   1.410       .  A
C1183      C1189   1.450       .  S
C1184      C1185   1.412       .  A
C1185      C1186   1.404       .  A
C1185      C1188   1.453       .  S
C1186      C1190   1.453       .  S
C1187      N1194   1.157       .  T
C1188      N1195   1.157       .  T
C1189      N1193   1.157       .  T
C1190      N1196   1.157       .  T
C1191      N1200   1.157       .  T
C1192      N1198   1.157       .  T
C1201      C1202   1.410       .  A
C1201      C1206   1.409       .  A
C1201      C1219   1.452       .  S
C1202      C1207   1.501       .  S
C1202      C1203   1.412       .  A
C1203      C1204   1.417       .  A
C1203      C1208   1.449       .  S
C1204      C1205   1.413       .  A
C1204      C1220   1.449       .  S
C1205      C1206   1.414       .  A
C1206      C1209   1.450       .  S
C1207      C1210   1.411       .  A
C1207      C1214   1.409       .  A
C1208      N1225   1.157       .  T
C1209      N1227   1.157       .  T
C1210      C1211   1.417       .  A
C1210      C1215   1.449       .  S
C1211      C1212   1.416       .  A
C1211      C1217   1.449       .  S
C1212      C1213   1.417       .  A
C1213      C1214   1.409       .  A
C1213      C1216   1.451       .  S
C1214      C1218   1.452       .  S
C1215      N1222   1.157       .  T
C1216      N1223   1.157       .  T
C1217      N1221   1.157       .  T
C1218      N1224   1.157       .  T
C1219      N1228   1.157       .  T
C1220      N1226   1.157       .  T
C1229      C1230   1.413       .  A
C1229      C1234   1.415       .  A
C1229      C1247   1.449       .  S
C1230      C1235   1.499       .  S
C1230      C1231   1.411       .  A
C1231      C1232   1.408       .  A
C1231      C1236   1.451       .  S
C1232      C1233   1.413       .  A
C1232      C1248   1.451       .  S
C1233      C1234   1.412       .  A
C1234      C1237   1.447       .  S
C1235      C1238   1.411       .  A
C1235      C1242   1.411       .  A
C1236      N1253   1.157       .  T
C1237      N1255   1.157       .  T
C1238      C1239   1.415       .  A
C1238      C1243   1.449       .  S
C1239      C1240   1.417       .  A
C1239      C1245   1.450       .  S
C1240      C1241   1.416       .  A
C1241      C1242   1.409       .  A
C1241      C1244   1.451       .  S
C1242      C1246   1.453       .  S
C1243      N1250   1.157       .  T
C1244      N1251   1.157       .  T
C1245      N1249   1.157       .  T
C1246      N1252   1.157       .  T
C1247      N1256   1.157       .  T
C1248      N1254   1.157       .  T
C1257      C1258   1.407       .  A
C1257      C1262   1.408       .  A
C1257      C1275   1.453   1_554  S
C1258      C1263   1.495   1_554  S
C1258      C1259   1.407       .  A
C1259      C1260   1.414       .  A
C1259      C1264   1.450       .  S
C1260      C1261   1.425       .  A
C1260      C1276   1.451       .  S
C1261      C1262   1.425       .  A
C1262      C1265   1.452       .  S
C1263      C1266   1.410       .  A
C1263      C1270   1.410       .  A
C1264      N1281   1.157       .  T
C1265      N1283   1.157       .  T
C1266      C1267   1.413       .  A
C1266      C1271   1.450       .  S
C1267      C1268   1.413       .  A
C1267      C1273   1.449       .  S
C1268      C1269   1.414       .  A
C1269      C1270   1.408       .  A
C1269      C1272   1.450       .  S
C1270      C1274   1.452   1_556  S
C1271      N1278   1.157       .  T
C1272      N1279   1.157       .  T
C1273      N1277   1.157       .  T
C1274      N1280   1.157       .  T
C1275      N1284   1.157       .  T
C1276      N1282   1.158       .  T
C1285      C1286   1.412       .  A
C1285      C1290   1.416       .  A
C1285      C1303   1.449   1_554  S
C1286      C1291   1.499   1_554  S
C1286      C1287   1.411       .  A
C1287      C1288   1.409       .  A
C1287      C1292   1.452       .  S
C1288      C1289   1.414       .  A
C1288      C1304   1.451       .  S
C1289      C1290   1.413       .  A
C1290      C1293   1.450       .  S
C1291      C1294   1.411       .  A
C1291      C1298   1.413       .  A
C1292      N1309   1.157       .  T
C1293      N1311   1.157       .  T
C1294      C1295   1.408       .  A
C1294      C1299   1.452       .  S
C1295      C1296   1.414       .  A
C1295      C1301   1.452       .  S
C1296      C1297   1.411       .  A
C1297      C1298   1.416       .  A
C1297      C1300   1.448       .  S
C1298      C1302   1.448       .  S
C1299      N1306   1.157       .  T
C1300      N1307   1.157       .  T
C1301      N1305   1.157       .  T
C1302      N1308   1.157       .  T
C1303      N1312   1.157       .  T
C1304      N1310   1.157       .  T
C1313      C1314   1.411       .  A
C1313      C1318   1.405       .  A
C1313      C1331   1.452       .  S
C1314      C1319   1.484       .  S
C1314      C1315   1.405       .  A
C1315      C1316   1.407       .  A
C1315      C1320   1.450       .  S
C1316      C1317   1.416       .  A
C1316      C1332   1.450       .  S
C1317      C1318   1.414       .  A
C1318      C1321   1.452       .  S
C1319      C1322   1.409       .  A
C1319      C1326   1.411       .  A
C1320      N1337   1.157       .  T
C1321      N1339   1.157       .  T
C1322      C1323   1.407       .  A
C1322      C1327   1.450       .  S
C1323      C1324   1.410       .  A
C1323      C1329   1.451       .  S
C1324      C1325   1.407       .  A
C1325      C1326   1.404       .  A
C1325      C1328   1.451       .  S
C1326      C1330   1.451       .  S
C1327      N1334   1.157       .  T
C1328      N1335   1.157       .  T
C1329      N1333   1.157       .  T
C1330      N1336   1.157       .  T
C1331      N1340   1.157       .  T
C1332      N1338   1.157       .  T
C1341      C1342   1.411       .  A
C1341      C1346   1.413       .  A
C1341      C1359   1.449       .  S
C1342      C1347   1.494       .  S
C1342      C1343   1.409       .  A
C1343      C1344   1.407       .  A
C1343      C1348   1.452       .  S
C1344      C1345   1.413       .  A
C1344      C1360   1.448       .  S
C1345      C1346   1.413       .  A
C1346      C1349   1.450       .  S
C1347      C1350   1.409       .  A
C1347      C1354   1.409       .  A
C1348      N1365   1.157       .  T
C1349      N1367   1.157       .  T
C1350      C1351   1.406       .  A
C1350      C1355   1.454       .  S
C1351      C1352   1.419       .  A
C1351      C1357   1.452       .  S
C1352      C1353   1.417       .  A
C1353      C1354   1.414       .  A
C1353      C1356   1.449       .  S
C1354      C1358   1.450       .  S
C1355      N1362   1.157       .  T
C1356      N1363   1.157       .  T
C1357      N1361   1.157       .  T
C1358      N1364   1.157       .  T
C1359      N1368   1.157       .  T
C1360      N1366   1.156       .  T
C1369      C1370   1.406       .  A
C1369      C1374   1.411       .  A
C1369      C1387   1.451       .  S
C1370      C1375   1.491       .  S
C1370      C1371   1.406       .  A
C1371      C1372   1.409       .  A
C1371      C1376   1.453       .  S
C1372      C1373   1.424       .  A
C1372      C1388   1.451       .  S
C1373      C1374   1.422       .  A
C1374      C1377   1.451       .  S
C1375      C1378   1.410       .  A
C1375      C1382   1.411       .  A
C1376      N1393   1.157       .  T
C1377      N1395   1.157       .  T
C1378      C1379   1.409       .  A
C1378      C1383   1.450       .  S
C1379      C1380   1.413       .  A
C1379      C1385   1.451       .  S
C1380      C1381   1.412       .  A
C1381      C1382   1.409       .  A
C1381      C1384   1.451       .  S
C1382      C1386   1.451       .  S
C1383      N1390   1.157       .  T
C1384      N1391   1.157       .  T
C1385      N1389   1.157       .  T
C1386      N1392   1.157       .  T
C1387      N1396   1.157       .  T
C1388      N1394   1.157       .  T
C1397      C1398   1.408       .  A
C1397      C1402   1.407       .  A
C1397      C1415   1.452       .  S
C1398      C1403   1.486       .  S
C1398      C1399   1.408       .  A
C1399      C1400   1.406       .  A
C1399      C1404   1.451       .  S
C1400      C1401   1.415       .  A
C1400      C1416   1.451       .  S
C1401      C1402   1.416       .  A
C1402      C1405   1.452       .  S
C1403      C1406   1.404       .  A
C1403      C1410   1.406       .  A
C1404      N1421   1.157       .  T
C1405      N1423   1.157       .  T
C1406      C1407   1.406       .  A
C1406      C1411   1.454       .  S
C1407      C1408   1.424       .  A
C1407      C1413   1.450       .  S
C1408      C1409   1.424       .  A
C1409      C1410   1.409       .  A
C1409      C1412   1.452       .  S
C1410      C1414   1.452       .  S
C1411      N1418   1.157       .  T
C1412      N1419   1.158       .  T
C1413      N1417   1.157       .  T
C1414      N1420   1.157       .  T
C1415      N1424   1.157       .  T
C1416      N1422   1.157       .  T
C1425      C1426   1.410       .  A
C1425      C1430   1.411       .  A
C1425      C1443   1.450       .  S
C1426      C1431   1.502       .  S
C1426      C1427   1.412       .  A
C1427      C1428   1.416       .  A
C1427      C1432   1.450       .  S
C1428      C1429   1.416       .  A
C1428      C1444   1.449       .  S
C1429      C1430   1.415       .  A
C1430      C1433   1.451       .  S
C1431      C1434   1.411       .  A
C1431      C1438   1.413       .  A
C1432      N1449   1.157       .  T
C1433      N1451   1.157       .  T
C1434      C1435   1.408       .  A
C1434      C1439   1.453       .  S
C1435      C1436   1.418       .  A
C1435      C1441   1.453       .  S
C1436      C1437   1.416       .  A
C1437      C1438   1.419       .  A
C1437      C1440   1.450       .  S
C1438      C1442   1.449       .  S
C1439      N1446   1.157       .  T
C1440      N1447   1.157       .  T
C1441      N1445   1.157       .  T
C1442      N1448   1.157       .  T
C1443      N1452   1.157       .  T
C1444      N1450   1.157       .  T
C1453      C1454   1.408       .  A
C1453      C1458   1.410       .  A
C1453      C1471   1.453       .  S
C1454      C1459   1.497       .  S
C1454      C1455   1.409       .  A
C1455      C1456   1.411       .  A
C1455      C1460   1.452       .  S
C1456      C1457   1.423       .  A
C1456      C1472   1.452       .  S
C1457      C1458   1.423       .  A
C1458      C1461   1.451       .  S
C1459      C1462   1.409       .  A
C1459      C1466   1.411       .  A
C1460      N1477   1.157       .  T
C1461      N1479   1.157       .  T
C1462      C1463   1.409       .  A
C1462      C1467   1.452       .  S
C1463      C1464   1.420       .  A
C1463      C1469   1.452       .  S
C1464      C1465   1.417       .  A
C1465      C1466   1.411       .  A
C1465      C1468   1.451       .  S
C1466      C1470   1.451       .  S
C1467      N1474   1.157       .  T
C1468      N1475   1.157       .  T
C1469      N1473   1.157       .  T
C1470      N1476   1.157       .  T
C1471      N1480   1.157       .  T
C1472      N1478   1.158       .  T
C1481      C1482   1.407       .  A
C1481      C1486   1.413       .  A
C1481      C1499   1.450       .  S
C1482      C1487   1.487       .  S
C1482      C1483   1.407       .  A
C1483      C1484   1.402       .  A
C1483      C1488   1.453       .  S
C1484      C1485   1.421       .  A
C1484      C1500   1.454       .  S
C1485      C1486   1.422       .  A
C1486      C1489   1.450       .  S
C1487      C1490   1.407       .  A
C1487      C1494   1.405       .  A
C1488      N1505   1.157       .  T
C1489      N1507   1.158       .  T
C1490      C1491   1.407       .  A
C1490      C1495   1.452       .  S
C1491      C1492   1.418       .  A
C1491      C1497   1.451       .  S
C1492      C1493   1.423       .  A
C1493      C1494   1.409       .  A
C1493      C1496   1.451       .  S
C1494      C1498   1.451       .  S
C1495      N1502   1.157       .  T
C1496      N1503   1.158       .  T
C1497      N1501   1.157       .  T
C1498      N1504   1.157       .  T
C1499      N1508   1.157       .  T
C1500      N1506   1.158       .  T
C1509      C1510   1.409       .  A
C1509      C1514   1.415       .  A
C1509      C1527   1.449       .  S
C1510      C1515   1.492       .  S
C1510      C1511   1.408       .  A
C1511      C1512   1.405       .  A
C1511      C1516   1.454       .  S
C1512      C1513   1.420       .  A
C1512      C1528   1.450       .  S
C1513      C1514   1.420       .  A
C1514      C1517   1.451       .  S
C1515      C1518   1.408       .  A
C1515      C1522   1.410       .  A
C1516      N1533   1.157       .  T
C1517      N1535   1.158       .  T
C1518      C1519   1.406       .  A
C1518      C1523   1.453       .  S
C1519      C1520   1.414       .  A
C1519      C1525   1.448       .  S
C1520      C1521   1.415       .  A
C1521      C1522   1.413       .  A
C1521      C1524   1.449       .  S
C1522      C1526   1.449       .  S
C1523      N1530   1.157       .  T
C1524      N1531   1.157       .  T
C1525      N1529   1.157       .  T
C1526      N1532   1.157       .  T
C1527      N1536   1.157       .  T
C1528      N1534   1.156       .  T
C1537      C1538   1.413       .  A
C1537      C1542   1.410       .  A
C1537      C1555   1.452       .  S
C1538      C1543   1.499       .  S
C1538      C1539   1.411       .  A
C1539      C1540   1.411       .  A
C1539      C1544   1.451       .  S
C1540      C1541   1.417       .  A
C1540      C1556   1.451       .  S
C1541      C1542   1.415       .  A
C1542      C1545   1.451       .  S
C1543      C1546   1.412       .  A
C1543      C1550   1.410       .  A
C1544      N1561   1.157       .  T
C1545      N1563   1.157       .  T
C1546      C1547   1.414       .  A
C1546      C1551   1.450       .  S
C1547      C1548   1.415       .  A
C1547      C1553   1.450       .  S
C1548      C1549   1.416       .  A
C1549      C1550   1.406       .  A
C1549      C1552   1.448       .  S
C1550      C1554   1.453       .  S
C1551      N1558   1.157       .  T
C1552      N1559   1.156       .  T
C1553      N1557   1.157       .  T
C1554      N1560   1.157       .  T
C1555      N1564   1.157       .  T
C1556      N1562   1.157       .  T
C1565      C1566   1.411       .  A
C1565      C1570   1.410       .  A
C1565      C1583   1.450       .  S
C1566      C1571   1.491       .  S
C1566      C1567   1.412       .  A
C1567      C1568   1.407       .  A
C1567      C1572   1.451       .  S
C1568      C1569   1.409       .  A
C1568      C1584   1.451       .  S
C1569      C1570   1.411       .  A
C1570      C1573   1.451       .  S
C1571      C1574   1.411       .  A
C1571      C1578   1.409       .  A
C1572      N1589   1.157       .  T
C1573      N1591   1.157       .  T
C1574      C1575   1.415       .  A
C1574      C1579   1.449       .  S
C1575      C1576   1.413       .  A
C1575      C1581   1.449       .  S
C1576      C1577   1.417       .  A
C1577      C1578   1.402       .  A
C1577      C1580   1.454       .  S
C1578      C1582   1.454       .  S
C1579      N1586   1.157       .  T
C1580      N1587   1.157       .  T
C1581      N1585   1.157       .  T
C1582      N1588   1.157       .  T
C1583      N1592   1.157       .  T
C1584      N1590   1.157       .  T
C1593      C1594   1.409       .  A
C1593      C1598   1.401       .  A
C1593      C1611   1.452       .  S
C1594      C1599   1.488       .  S
C1594      C1595   1.411       .  A
C1595      C1596   1.412       .  A
C1595      C1600   1.449       .  S
C1596      C1597   1.413       .  A
C1596      C1612   1.449       .  S
C1597      C1598   1.410       .  A
C1598      C1601   1.449       .  S
C1599      C1602   1.408       .  A
C1599      C1606   1.409       .  A
C1600      N1617   1.157       .  T
C1601      N1619   1.156       .  T
C1602      C1603   1.410       .  A
C1602      C1607   1.450       .  S
C1603      C1604   1.417       .  A
C1603      C1609   1.448       .  S
C1604      C1605   1.414       .  A
C1605      C1606   1.406       .  A
C1605      C1608   1.449       .  S
C1606      C1610   1.452       .  S
C1607      N1614   1.157       .  T
C1608      N1615   1.156       .  T
C1609      N1613   1.157       .  T
C1610      N1616   1.157       .  T
C1611      N1620   1.157       .  T
C1612      N1618   1.157       .  T
C1621      C1622   1.413       .  A
C1621      C1626   1.413       .  A
C1621      C1639   1.450       .  S
C1622      C1627   1.502       .  S
C1622      C1623   1.413       .  A
C1623      C1624   1.413       .  A
C1623      C1628   1.450       .  S
C1624      C1625   1.412       .  A
C1624      C1640   1.450       .  S
C1625      C1626   1.412       .  A
C1626      C1629   1.451       .  S
C1627      C1630   1.411       .  A
C1627      C1634   1.411       .  A
C1628      N1645   1.157       .  T
C1629      N1647   1.157       .  T
C1630      C1631   1.412       .  A
C1630      C1635   1.451       .  S
C1631      C1632   1.418       .  A
C1631      C1637   1.451       .  S
C1632      C1633   1.418       .  A
C1633      C1634   1.414       .  A
C1633      C1636   1.451       .  S
C1634      C1638   1.450       .  S
C1635      N1642   1.157       .  T
C1636      N1643   1.157       .  T
C1637      N1641   1.157       .  T
C1638      N1644   1.157       .  T
C1639      N1648   1.157       .  T
C1640      N1646   1.157       .  T
C1649      C1650   1.410       .  A
C1649      C1654   1.410       .  A
C1649      C1667   1.450       .  S
C1650      C1655   1.499       .  S
C1650      C1651   1.412       .  A
C1651      C1652   1.414       .  A
C1651      C1656   1.450       .  S
C1652      C1653   1.416       .  A
C1652      C1668   1.449       .  S
C1653      C1654   1.416       .  A
C1654      C1657   1.450       .  S
C1655      C1658   1.411       .  A
C1655      C1662   1.410       .  A
C1656      N1673   1.157       .  T
C1657      N1675   1.157       .  T
C1658      C1659   1.408       .  A
C1658      C1663   1.453       .  S
C1659      C1660   1.417       .  A
C1659      C1665   1.450       .  S
C1660      C1661   1.419       .  A
C1661      C1662   1.415       .  A
C1661      C1664   1.450       .  S
C1662      C1666   1.450       .  S
C1663      N1670   1.157       .  T
C1664      N1671   1.157       .  T
C1665      N1669   1.157       .  T
C1666      N1672   1.157       .  T
C1667      N1676   1.157       .  T
C1668      N1674   1.157       .  T
C1677      C1678   1.410       .  A
C1677      C1682   1.413       .  A
C1677      C1695   1.449       .  S
C1678      C1683   1.498       .  S
C1678      C1679   1.411       .  A
C1679      C1680   1.410       .  A
C1679      C1684   1.451       .  S
C1680      C1681   1.415       .  A
C1680      C1696   1.452       .  S
C1681      C1682   1.415       .  A
C1682      C1685   1.450       .  S
C1683      C1686   1.408       .  A
C1683      C1690   1.411       .  A
C1684      N1701   1.157       .  T
C1685      N1703   1.157       .  T
C1686      C1687   1.412       .  A
C1686      C1691   1.451       .  S
C1687      C1688   1.420       .  A
C1687      C1693   1.451       .  S
C1688      C1689   1.417       .  A
C1689      C1690   1.413       .  A
C1689      C1692   1.451       .  S
C1690      C1694   1.451       .  S
C1691      N1698   1.157       .  T
C1692      N1699   1.157       .  T
C1693      N1697   1.157       .  T
C1694      N1700   1.157       .  T
C1695      N1704   1.157       .  T
C1696      N1702   1.157       .  T
C1705      C1706   1.409       .  A
C1705      C1710   1.416       .  A
C1705      C1723   1.449       .  S
C1706      C1711   1.497       .  S
C1706      C1707   1.410       .  A
C1707      C1708   1.409       .  A
C1707      C1712   1.454       .  S
C1708      C1709   1.421       .  A
C1708      C1724   1.452       .  S
C1709      C1710   1.417       .  A
C1710      C1713   1.450       .  S
C1711      C1714   1.410       .  A
C1711      C1718   1.409       .  A
C1712      N1729   1.157       .  T
C1713      N1731   1.157       .  T
C1714      C1715   1.414       .  A
C1714      C1719   1.449       .  S
C1715      C1716   1.416       .  A
C1715      C1721   1.451       .  S
C1716      C1717   1.414       .  A
C1717      C1718   1.409       .  A
C1717      C1720   1.449       .  S
C1718      C1722   1.450       .  S
C1719      N1726   1.157       .  T
C1720      N1727   1.157       .  T
C1721      N1725   1.157       .  T
C1722      N1728   1.157       .  T
C1723      N1732   1.157       .  T
C1724      N1730   1.158       .  T
C1733      C1734   1.411       .  A
C1733      C1738   1.410       .  A
C1733      C1751   1.451       .  S
C1734      C1739   1.499       .  S
C1734      C1735   1.411       .  A
C1735      C1736   1.413       .  A
C1735      C1740   1.451       .  S
C1736      C1737   1.417       .  A
C1736      C1752   1.450       .  S
C1737      C1738   1.417       .  A
C1738      C1741   1.451       .  S
C1739      C1742   1.411       .  A
C1739      C1746   1.411       .  A
C1740      N1757   1.157       .  T
C1741      N1759   1.157       .  T
C1742      C1743   1.412       .  A
C1742      C1747   1.450       .  S
C1743      C1744   1.416       .  A
C1743      C1749   1.451       .  S
C1744      C1745   1.413       .  A
C1745      C1746   1.411       .  A
C1745      C1748   1.448       .  S
C1746      C1750   1.452       .  S
C1747      N1754   1.157       .  T
C1748      N1755   1.156       .  T
C1749      N1753   1.157       .  T
C1750      N1756   1.157       .  T
C1751      N1760   1.157       .  T
C1752      N1758   1.157       .  T
C1761      C1762   1.408       .  A
C1761      C1766   1.407       .  A
C1761      C1779   1.453       .  S
C1762      C1767   1.497       .  S
C1762      C1763   1.409       .  A
C1763      C1764   1.417       .  A
C1763      C1768   1.450       .  S
C1764      C1765   1.422       .  A
C1764      C1780   1.450       .  S
C1765      C1766   1.423       .  A
C1766      C1769   1.453       .  S
C1767      C1770   1.409       .  A
C1767      C1774   1.410       .  A
C1768      N1785   1.157       .  T
C1769      N1787   1.158       .  T
C1770      C1771   1.410       .  A
C1770      C1775   1.450       .  S
C1771      C1772   1.415       .  A
C1771      C1777   1.450       .  S
C1772      C1773   1.418       .  A
C1773      C1774   1.413       .  A
C1773      C1776   1.451       .  S
C1774      C1778   1.450       .  S
C1775      N1782   1.157       .  T
C1776      N1783   1.158       .  T
C1777      N1781   1.157       .  T
C1778      N1784   1.157       .  T
C1779      N1788   1.157       .  T
C1780      N1786   1.157       .  T
C1789      C1790   1.409       .  A
C1789      C1794   1.415       .  A
C1789      C1807   1.449       .  S
C1790      C1795   1.493       .  S
C1790      C1791   1.408       .  A
C1791      C1792   1.405       .  A
C1791      C1796   1.454       .  S
C1792      C1793   1.420       .  A
C1792      C1808   1.453       .  S
C1793      C1794   1.418       .  A
C1794      C1797   1.450       .  S
C1795      C1798   1.408       .  A
C1795      C1802   1.407       .  A
C1796      N1813   1.157       .  T
C1797      N1815   1.157       .  T
C1798      C1799   1.407       .  A
C1798      C1803   1.454       .  S
C1799      C1800   1.422       .  A
C1799      C1805   1.453       .  S
C1800      C1801   1.420       .  A
C1801      C1802   1.414       .  A
C1801      C1804   1.450       .  S
C1802      C1806   1.450       .  S
C1803      N1810   1.157       .  T
C1804      N1811   1.157       .  T
C1805      N1809   1.158       .  T
C1806      N1812   1.157       .  T
C1807      N1816   1.157       .  T
C1808      N1814   1.157       .  T
C1817      C1818   1.411       .  A
C1817      C1822   1.410       .  A
C1817      C1835   1.452       .  S
C1818      C1823   1.503       .  S
C1818      C1819   1.410       .  A
C1819      C1820   1.415       .  A
C1819      C1824   1.450       .  S
C1820      C1821   1.420       .  A
C1820      C1836   1.451       .  S
C1821      C1822   1.419       .  A
C1822      C1825   1.452       .  S
C1823      C1826   1.412       .  A
C1823      C1830   1.409       .  A
C1824      N1841   1.157       .  T
C1825      N1843   1.157       .  T
C1826      C1827   1.415       .  A
C1826      C1831   1.452       .  S
C1827      C1828   1.419       .  A
C1827      C1833   1.451       .  S
C1828      C1829   1.422       .  A
C1829      C1830   1.412       .  A
C1829      C1832   1.451       .  S
C1830      C1834   1.452       .  S
C1831      N1838   1.157       .  T
C1832      N1839   1.157       .  T
C1833      N1837   1.157       .  T
C1834      N1840   1.157       .  T
C1835      N1844   1.157       .  T
C1836      N1842   1.158       .  T
C1845      C1846   1.410       .  A
C1845      C1850   1.417       .  A
C1845      C1863   1.449       .  S
C1846      C1851   1.498       .  S
C1846      C1847   1.407       .  A
C1847      C1848   1.406       .  A
C1847      C1852   1.454       .  S
C1848      C1849   1.421       .  A
C1848      C1864   1.449       .  S
C1849      C1850   1.416       .  A
C1850      C1853   1.447       .  S
C1851      C1854   1.409       .  A
C1851      C1858   1.411       .  A
C1852      N1869   1.157       .  T
C1853      N1871   1.157       .  T
C1854      C1855   1.414       .  A
C1854      C1859   1.450       .  S
C1855      C1856   1.419       .  A
C1855      C1861   1.451       .  S
C1856      C1857   1.418       .  A
C1857      C1858   1.409       .  A
C1857      C1860   1.452       .  S
C1858      C1862   1.452       .  S
C1859      N1866   1.157       .  T
C1860      N1867   1.158       .  T
C1861      N1865   1.157       .  T
C1862      N1868   1.157       .  T
C1863      N1872   1.157       .  T
C1864      N1870   1.156       .  T
C1873      C1874   1.408       .  A
C1873      C1878   1.413       .  A
C1873      C1891   1.453       .  S
C1874      C1879   1.504       .  S
C1874      C1875   1.409       .  A
C1875      C1876   1.415       .  A
C1875      C1880   1.452       .  S
C1876      C1877   1.429       .  A
C1876      C1892   1.452       .  S
C1877      C1878   1.427       .  A
C1878      C1881   1.451       .  S
C1879      C1882   1.414       .  A
C1879      C1886   1.412       .  A
C1880      N1897   1.157       .  T
C1881      N1899   1.158       .  T
C1882      C1883   1.414       .  A
C1882      C1887   1.450       .  S
C1883      C1884   1.413       .  A
C1883      C1889   1.451       .  S
C1884      C1885   1.415       .  A
C1885      C1886   1.411       .  A
C1885      C1888   1.450       .  S
C1886      C1890   1.451       .  S
C1887      N1894   1.157       .  T
C1888      N1895   1.157       .  T
C1889      N1893   1.157       .  T
C1890      N1896   1.157       .  T
C1891      N1900   1.157       .  T
C1892      N1898   1.158       .  T
C1901      C1902   1.413       .  A
C1901      C1906   1.417       .  A
C1901      C1919   1.449       .  S
C1902      C1907   1.498       .  S
C1902      C1903   1.409       .  A
C1903      C1904   1.406       .  A
C1903      C1908   1.453       .  S
C1904      C1905   1.419       .  A
C1904      C1920   1.454       .  S
C1905      C1906   1.413       .  A
C1906      C1909   1.449       .  S
C1907      C1910   1.411       .  A
C1907      C1914   1.412       .  A
C1908      N1925   1.157       .  T
C1909      N1927   1.157       .  T
C1910      C1911   1.409       .  A
C1910      C1915   1.452       .  S
C1911      C1912   1.412       .  A
C1911      C1917   1.449       .  S
C1912      C1913   1.412       .  A
C1913      C1914   1.415       .  A
C1913      C1916   1.448       .  S
C1914      C1918   1.449       .  S
C1915      N1922   1.157       .  T
C1916      N1923   1.157       .  T
C1917      N1921   1.157       .  T
C1918      N1924   1.157       .  T
C1919      N1928   1.157       .  T
C1920      N1926   1.157       .  T
C1929      C1930   1.413       .  A
C1929      C1934   1.417       .  A
C1929      C1947   1.450       .  S
C1930      C1935   1.508       .  S
C1930      C1931   1.411       .  A
C1931      C1932   1.414       .  A
C1931      C1936   1.451       .  S
C1932      C1933   1.420       .  A
C1932      C1948   1.451       .  S
C1933      C1934   1.417       .  A
C1934      C1937   1.450       .  S
C1935      C1938   1.409       .  A
C1935      C1942   1.411       .  A
C1936      N1953   1.157       .  T
C1937      N1955   1.157       .  T
C1938      C1939   1.415       .  A
C1938      C1943   1.452       .  S
C1939      C1940   1.427       .  A
C1939      C1945   1.452       .  S
C1940      C1941   1.423       .  A
C1941      C1942   1.416       .  A
C1941      C1944   1.449       .  S
C1942      C1946   1.452       .  S
C1943      N1950   1.157       .  T
C1944      N1951   1.157       .  T
C1945      N1949   1.158       .  T
C1946      N1952   1.157       .  T
C1947      N1956   1.157       .  T
C1948      N1954   1.157       .  T
C1957      C1958   1.409       .  A
C1957      C1962   1.405       .  A
C1957      C1975   1.454       .  S
C1958      C1963   1.500   1_545  S
C1958      C1959   1.413       .  A
C1959      C1960   1.420       .  A
C1959      C1964   1.448       .  S
C1960      C1961   1.415       .  A
C1960      C1976   1.448       .  S
C1961      C1962   1.420       .  A
C1962      C1965   1.454       .  S
C1963      C1966   1.410       .  A
C1963      C1970   1.412       .  A
C1964      N1981   1.157       .  T
C1965      N1983   1.157       .  T
C1966      C1967   1.410       .  A
C1966      C1971   1.450       .  S
C1967      C1968   1.414       .  A
C1967      C1973   1.450       .  S
C1968      C1969   1.415       .  A
C1969      C1970   1.415       .  A
C1969      C1972   1.450       .  S
C1970      C1974   1.449       .  S
C1971      N1978   1.157   1_565  T
C1972      N1979   1.158       .  T
C1973      N1977   1.157       .  T
C1974      N1980   1.157       .  T
C1975      N1984   1.157   1_545  T
C1976      N1982   1.157       .  T
C1985      C1986   1.412       .  A
C1985      C1990   1.408       .  A
C1985      C2003   1.451       .  S
C1986      C1991   1.501       .  S
C1986      C1987   1.415       .  A
C1987      C1988   1.415       .  A
C1987      C1992   1.448       .  S
C1988      C1989   1.409       .  A
C1988      C2004   1.448       .  S
C1989      C1990   1.411       .  A
C1990      C1993   1.450       .  S
C1991      C1994   1.412       .  A
C1991      C1998   1.412       .  A
C1992      N2009   1.157       .  T
C1993      N2011   1.157       .  T
C1994      C1995   1.408       .  A
C1994      C1999   1.453       .  S
C1995      C1996   1.418       .  A
C1995      C2001   1.453       .  S
C1996      C1997   1.415       .  A
C1997      C1998   1.417       .  A
C1997      C2000   1.449       .  S
C1998      C2002   1.449       .  S
C1999      N2006   1.157       .  T
C2000      N2007   1.157       .  T
C2001      N2005   1.158       .  T
C2002      N2008   1.157       .  T
C2003      N2012   1.157       .  T
C2004      N2010   1.157       .  T
C2013      C2014   1.412       .  A
C2013      C2018   1.412       .  A
C2013      C2031   1.451       .  S
C2014      C2019   1.505       .  S
C2014      C2015   1.413       .  A
C2015      C2016   1.415       .  A
C2015      C2020   1.451       .  S
C2016      C2017   1.416       .  A
C2016      C2032   1.449       .  S
C2017      C2018   1.418       .  A
C2018      C2021   1.452       .  S
C2019      C2022   1.412       .  A
C2019      C2026   1.412       .  A
C2020      N2037   1.157       .  T
C2021      N2039   1.157       .  T
C2022      C2023   1.414       .  A
C2022      C2027   1.451       .  S
C2023      C2024   1.418       .  A
C2023      C2029   1.451       .  S
C2024      C2025   1.421       .  A
C2025      C2026   1.414       .  A
C2025      C2028   1.452       .  S
C2026      C2030   1.452       .  S
C2027      N2034   1.157       .  T
C2028      N2035   1.158       .  T
C2029      N2033   1.157       .  T
C2030      N2036   1.157       .  T
C2031      N2040   1.157       .  T
C2032      N2038   1.157       .  T
C2041      C2042   1.409       .  A
C2041      C2046   1.406       .  A
C2041      C2059   1.451       .  S
C2042      C2047   1.490   1_455  S
C2042      C2043   1.411       .  A
C2043      C2044   1.410       .  A
C2043      C2048   1.449       .  S
C2044      C2045   1.408       .  A
C2044      C2060   1.448       .  S
C2045      C2046   1.410       .  A
C2046      C2049   1.448       .  S
C2047      C2050   1.406       .  A
C2047      C2054   1.406       .  A
C2048      N2065   1.157       .  T
C2049      N2067   1.157       .  T
C2050      C2051   1.405       .  A
C2050      C2055   1.455   1_655  S
C2051      C2052   1.427       .  A
C2051      C2057   1.454       .  S
C2052      C2053   1.423       .  A
C2053      C2054   1.414       .  A
C2053      C2056   1.450       .  S
C2054      C2058   1.450       .  S
C2055      N2062   1.158       .  T
C2056      N2063   1.158       .  T
C2057      N2061   1.158       .  T
C2058      N2064   1.157       .  T
C2059      N2068   1.157   1_455  T
C2060      N2066   1.157       .  T
C2069      C2070   1.408       .  A
C2069      C2074   1.413       .  A
C2069      C2087   1.450       .  S
C2070      C2075   1.497       .  S
C2070      C2071   1.409       .  A
C2071      C2072   1.411       .  A
C2071      C2076   1.453       .  S
C2072      C2073   1.416       .  A
C2072      C2088   1.447       .  S
C2073      C2074   1.414       .  A
C2074      C2077   1.446       .  S
C2075      C2078   1.409       .  A
C2075      C2082   1.407       .  A
C2076      N2093   1.157       .  T
C2077      N2095   1.156       .  T
C2078      C2079   1.411       .  A
C2078      C2083   1.452       .  S
C2079      C2080   1.423       .  A
C2079      C2085   1.452       .  S
C2080      C2081   1.423       .  A
C2081      C2082   1.412       .  A
C2081      C2084   1.451       .  S
C2082      C2086   1.451       .  S
C2083      N2090   1.157       .  T
C2084      N2091   1.158       .  T
C2085      N2089   1.157       .  T
C2086      N2092   1.157       .  T
C2087      N2096   1.157       .  T
C2088      N2094   1.156       .  T
C2097      C2098   1.409       .  A
C2097      C2102   1.413       .  A
C2097      C2115   1.450       .  S
C2098      C2103   1.494       .  S
C2098      C2099   1.409       .  A
C2099      C2100   1.407       .  A
C2099      C2104   1.451       .  S
C2100      C2101   1.414       .  A
C2100      C2116   1.451       .  S
C2101      C2102   1.417       .  A
C2102      C2105   1.450       .  S
C2103      C2106   1.408       .  A
C2103      C2110   1.410       .  A
C2104      N2121   1.157       .  T
C2105      N2123   1.157       .  T
C2106      C2107   1.405       .  A
C2106      C2111   1.451       .  S
C2107      C2108   1.416       .  A
C2107      C2113   1.450       .  S
C2108      C2109   1.416       .  A
C2109      C2110   1.415       .  A
C2109      C2112   1.447       .  S
C2110      C2114   1.449       .  S
C2111      N2118   1.157       .  T
C2112      N2119   1.157       .  T
C2113      N2117   1.156       .  T
C2114      N2120   1.157       .  T
C2115      N2124   1.157       .  T
C2116      N2122   1.157       .  T
C2125      C2126   1.411       .  A
C2125      C2130   1.414       .  A
C2125      C2143   1.451       .  S
C2126      C2131   1.502       .  S
C2126      C2127   1.410       .  A
C2127      C2128   1.412       .  A
C2127      C2132   1.451       .  S
C2128      C2129   1.418       .  A
C2128      C2144   1.450       .  S
C2129      C2130   1.418       .  A
C2130      C2133   1.451       .  S
C2131      C2134   1.413       .  A
C2131      C2138   1.412       .  A
C2132      N2149   1.157       .  T
C2133      N2151   1.157       .  T
C2134      C2135   1.412       .  A
C2134      C2139   1.451       .  S
C2135      C2136   1.413       .  A
C2135      C2141   1.451       .  S
C2136      C2137   1.414       .  A
C2137      C2138   1.413       .  A
C2137      C2140   1.449       .  S
C2138      C2142   1.451       .  S
C2139      N2146   1.157       .  T
C2140      N2147   1.157       .  T
C2141      N2145   1.157       .  T
C2142      N2148   1.157       .  T
C2143      N2152   1.157       .  T
C2144      N2150   1.157       .  T
C2153      C2154   1.411       .  A
C2153      C2158   1.407       .  A
C2153      C2171   1.453       .  S
C2154      C2159   1.500       .  S
C2154      C2155   1.411       .  A
C2155      C2156   1.418       .  A
C2155      C2160   1.449       .  S
C2156      C2157   1.417       .  A
C2156      C2172   1.450       .  S
C2157      C2158   1.414       .  A
C2158      C2161   1.450       .  S
C2159      C2162   1.411   1_545  A
C2159      C2166   1.412   1_545  A
C2160      N2177   1.157       .  T
C2161      N2179   1.157       .  T
C2162      C2163   1.413       .  A
C2162      C2167   1.448       .  S
C2163      C2164   1.410       .  A
C2163      C2169   1.449       .  S
C2164      C2165   1.412       .  A
C2165      C2166   1.411       .  A
C2165      C2168   1.451       .  S
C2166      C2170   1.450   1_565  S
C2167      N2174   1.157   1_565  T
C2168      N2175   1.157       .  T
C2169      N2173   1.157       .  T
C2170      N2176   1.157       .  T
C2171      N2180   1.157   1_545  T
C2172      N2178   1.157       .  T
C2181      C2182   1.408       .  A
C2181      C2186   1.409       .  A
C2181      C2199   1.453       .  S
C2182      C2187   1.501       .  S
C2182      C2183   1.411       .  A
C2183      C2184   1.418       .  A
C2183      C2188   1.449       .  S
C2184      C2185   1.417       .  A
C2184      C2200   1.449       .  S
C2185      C2186   1.421       .  A
C2186      C2189   1.451       .  S
C2187      C2190   1.411       .  A
C2187      C2194   1.409       .  A
C2188      N2205   1.157       .  T
C2189      N2207   1.157       .  T
C2190      C2191   1.418       .  A
C2190      C2195   1.449       .  S
C2191      C2192   1.417       .  A
C2191      C2197   1.449       .  S
C2192      C2193   1.418       .  A
C2193      C2194   1.409       .  A
C2193      C2196   1.451       .  S
C2194      C2198   1.452       .  S
C2195      N2202   1.157       .  T
C2196      N2203   1.157       .  T
C2197      N2201   1.157       .  T
C2198      N2204   1.157       .  T
C2199      N2208   1.157       .  T
C2200      N2206   1.157       .  T
C2209      C2210   1.412       .  A
C2209      C2214   1.416       .  A
C2209      C2227   1.449       .  S
C2210      C2215   1.495       .  S
C2210      C2211   1.410       .  A
C2211      C2212   1.404       .  A
C2211      C2216   1.453       .  S
C2212      C2213   1.417       .  A
C2212      C2228   1.454       .  S
C2213      C2214   1.413       .  A
C2214      C2217   1.449       .  S
C2215      C2218   1.410       .  A
C2215      C2222   1.409       .  A
C2216      N2233   1.157       .  T
C2217      N2235   1.157       .  T
C2218      C2219   1.411       .  A
C2218      C2223   1.450       .  S
C2219      C2220   1.417       .  A
C2219      C2225   1.450       .  S
C2220      C2221   1.415       .  A
C2221      C2222   1.411       .  A
C2221      C2224   1.449       .  S
C2222      C2226   1.450       .  S
C2223      N2230   1.157       .  T
C2224      N2231   1.157       .  T
C2225      N2229   1.157       .  T
C2226      N2232   1.157       .  T
C2227      N2236   1.157       .  T
C2228      N2234   1.157       .  T
C2237      C2238   1.410       .  A
C2237      C2242   1.415       .  A
C2237      C2255   1.451       .  S
C2238      C2243   1.503       .  S
C2238      C2239   1.409       .  A
C2239      C2240   1.412       .  A
C2239      C2244   1.452       .  S
C2240      C2241   1.422       .  A
C2240      C2256   1.452       .  S
C2241      C2242   1.420       .  A
C2242      C2245   1.450       .  S
C2243      C2246   1.412       .  A
C2243      C2250   1.413       .  A
C2244      N2261   1.157       .  T
C2245      N2263   1.157       .  T
C2246      C2247   1.411       .  A
C2246      C2251   1.451       .  S
C2247      C2248   1.414       .  A
C2247      C2253   1.452       .  S
C2248      C2249   1.413       .  A
C2249      C2250   1.414       .  A
C2249      C2252   1.451       .  S
C2250      C2254   1.450       .  S
C2251      N2258   1.157       .  T
C2252      N2259   1.157       .  T
C2253      N2257   1.157       .  T
C2254      N2260   1.157       .  T
C2255      N2264   1.157       .  T
C2256      N2262   1.157       .  T
C2265      C2266   1.410       .  A
C2265      C2270   1.407       .  A
C2265      C2283   1.454       .  S
C2266      C2271   1.502   1_455  S
C2266      C2267   1.411       .  A
C2267      C2268   1.419       .  A
C2267      C2272   1.449       .  S
C2268      C2269   1.420       .  A
C2268      C2284   1.449       .  S
C2269      C2270   1.422       .  A
C2270      C2273   1.453       .  S
C2271      C2274   1.413       .  A
C2271      C2278   1.411       .  A
C2272      N2289   1.157       .  T
C2273      N2291   1.157       .  T
C2274      C2275   1.415       .  A
C2274      C2279   1.449       .  S
C2275      C2276   1.413       .  A
C2275      C2281   1.449       .  S
C2276      C2277   1.414       .  A
C2277      C2278   1.410       .  A
C2277      C2280   1.450       .  S
C2278      C2282   1.451       .  S
C2279      N2286   1.157   1_655  T
C2280      N2287   1.157       .  T
C2281      N2285   1.157       .  T
C2282      N2288   1.157   1_655  T
C2283      N2292   1.157   1_455  T
C2284      N2290   1.157       .  T
C2293      C2294   1.411       .  A
C2293      C2298   1.407       .  A
C2293      C2311   1.452       .  S
C2294      C2299   1.493       .  S
C2294      C2295   1.411       .  A
C2295      C2296   1.411       .  A
C2295      C2300   1.449       .  S
C2296      C2297   1.412       .  A
C2296      C2312   1.450       .  S
C2297      C2298   1.411       .  A
C2298      C2301   1.451       .  S
C2299      C2302   1.409       .  A
C2299      C2306   1.408       .  A
C2300      N2317   1.157       .  T
C2301      N2319   1.157       .  T
C2302      C2303   1.407       .  A
C2302      C2307   1.454       .  S
C2303      C2304   1.421       .  A
C2303      C2309   1.453       .  S
C2304      C2305   1.421       .  A
C2305      C2306   1.412       .  A
C2305      C2308   1.451       .  S
C2306      C2310   1.450       .  S
C2307      N2314   1.158       .  T
C2308      N2315   1.158       .  T
C2309      N2313   1.158       .  T
C2310      N2316   1.157       .  T
C2311      N2320   1.157       .  T
C2312      N2318   1.157       .  T
C2321      C2322   1.412       .  A
C2321      C2326   1.409       .  A
C2321      C2339   1.451       .  S
C2322      C2327   1.500       .  S
C2322      C2323   1.413       .  A
C2323      C2324   1.414       .  A
C2323      C2328   1.449       .  S
C2324      C2325   1.412       .  A
C2324      C2340   1.450       .  S
C2325      C2326   1.411       .  A
C2326      C2329   1.450       .  S
C2327      C2330   1.412       .  A
C2327      C2334   1.411       .  A
C2328      N2345   1.157       .  T
C2329      N2347   1.157       .  T
C2330      C2331   1.417       .  A
C2330      C2335   1.449       .  S
C2331      C2332   1.413       .  A
C2331      C2337   1.448       .  S
C2332      C2333   1.419       .  A
C2333      C2334   1.407       .  A
C2333      C2336   1.454       .  S
C2334      C2338   1.453       .  S
C2335      N2342   1.157       .  T
C2336      N2343   1.158       .  T
C2337      N2341   1.157       .  T
C2338      N2344   1.157       .  T
C2339      N2348   1.157       .  T
C2340      N2346   1.157       .  T
C2349      C2350   1.411       .  A
C2349      C2354   1.413       .  A
C2349      C2367   1.451       .  S
C2350      C2355   1.498       .  S
C2350      C2351   1.409       .  A
C2351      C2352   1.410       .  A
C2351      C2356   1.453       .  S
C2352      C2353   1.421       .  A
C2352      C2368   1.451       .  S
C2353      C2354   1.417       .  A
C2354      C2357   1.450       .  S
C2355      C2358   1.413       .  A
C2355      C2362   1.410       .  A
C2356      N2373   1.157       .  T
C2357      N2375   1.157       .  T
C2358      C2359   1.416       .  A
C2358      C2363   1.449       .  S
C2359      C2360   1.415       .  A
C2359      C2365   1.449       .  S
C2360      C2361   1.414       .  A
C2361      C2362   1.406       .  A
C2361      C2364   1.450       .  S
C2362      C2366   1.453       .  S
C2363      N2370   1.157       .  T
C2364      N2371   1.157       .  T
C2365      N2369   1.157       .  T
C2366      N2372   1.157       .  T
C2367      N2376   1.157       .  T
C2368      N2374   1.157       .  T
C2377      C2378   1.411       .  A
C2377      C2382   1.411       .  A
C2377      C2395   1.451       .  S
C2378      C2383   1.499       .  S
C2378      C2379   1.410       .  A
C2379      C2380   1.412       .  A
C2379      C2384   1.450       .  S
C2380      C2381   1.414       .  A
C2380      C2396   1.448       .  S
C2381      C2382   1.416       .  A
C2382      C2385   1.452       .  S
C2383      C2386   1.408       .  A
C2383      C2390   1.406       .  A
C2384      N2401   1.157       .  T
C2385      N2403   1.158       .  T
C2386      C2387   1.413       .  A
C2386      C2391   1.452       .  S
C2387      C2388   1.426       .  A
C2387      C2393   1.451       .  S
C2388      C2389   1.427       .  A
C2389      C2390   1.413       .  A
C2389      C2392   1.452       .  S
C2390      C2394   1.452       .  S
C2391      N2398   1.157       .  T
C2392      N2399   1.158       .  T
C2393      N2397   1.158       .  T
C2394      N2400   1.157       .  T
C2395      N2404   1.157       .  T
C2396      N2402   1.156       .  T
C2405      C2406   1.411       .  A
C2405      C2410   1.410       .  A
C2405      C2423   1.451       .  S
C2406      C2411   1.494       .  S
C2406      C2407   1.410       .  A
C2407      C2408   1.410       .  A
C2407      C2412   1.450       .  S
C2408      C2409   1.412       .  A
C2408      C2424   1.451       .  S
C2409      C2410   1.411       .  A
C2410      C2413   1.450       .  S
C2411      C2414   1.411       .  A
C2411      C2418   1.410       .  A
C2412      N2429   1.157       .  T
C2413      N2431   1.157       .  T
C2414      C2415   1.415       .  A
C2414      C2419   1.449       .  S
C2415      C2416   1.415       .  A
C2415      C2421   1.450       .  S
C2416      C2417   1.414       .  A
C2417      C2418   1.405       .  A
C2417      C2420   1.453       .  S
C2418      C2422   1.452       .  S
C2419      N2426   1.157       .  T
C2420      N2427   1.157       .  T
C2421      N2425   1.157       .  T
C2422      N2428   1.157       .  T
C2423      N2432   1.157       .  T
C2424      N2430   1.157       .  T
C2433      C2434   1.414       .  A
C2433      C2438   1.420       .  A
C2433      C2451   1.448       .  S
C2434      C2439   1.501       .  S
C2434      C2435   1.409       .  A
C2435      C2436   1.402       .  A
C2435      C2440   1.453       .  S
C2436      C2437   1.415       .  A
C2436      C2452   1.450       .  S
C2437      C2438   1.416       .  A
C2438      C2441   1.449       .  S
C2439      C2442   1.409       .  A
C2439      C2446   1.412       .  A
C2440      N2457   1.156       .  T
C2441      N2459   1.157       .  T
C2442      C2443   1.412       .  A
C2442      C2447   1.450       .  S
C2443      C2444   1.419       .  A
C2443      C2449   1.451       .  S
C2444      C2445   1.418       .  A
C2445      C2446   1.414       .  A
C2445      C2448   1.450       .  S
C2446      C2450   1.451       .  S
C2447      N2454   1.157       .  T
C2448      N2455   1.157       .  T
C2449      N2453   1.157       .  T
C2450      N2456   1.157       .  T
C2451      N2460   1.157       .  T
C2452      N2458   1.157       .  T
C2461      C2462   1.410       .  A
C2461      C2466   1.410       .  A
C2461      C2479   1.451       .  S
C2462      C2467   1.492       .  S
C2462      C2463   1.410       .  A
C2463      C2464   1.410       .  A
C2463      C2468   1.450       .  S
C2464      C2465   1.413       .  A
C2464      C2480   1.451       .  S
C2465      C2466   1.413       .  A
C2466      C2469   1.449       .  S
C2467      C2470   1.411       .  A
C2467      C2474   1.411       .  A
C2468      N2485   1.157       .  T
C2469      N2487   1.156       .  T
C2470      C2471   1.414       .  A
C2470      C2475   1.449       .  S
C2471      C2472   1.412       .  A
C2471      C2477   1.450       .  S
C2472      C2473   1.412       .  A
C2473      C2474   1.405       .  A
C2473      C2476   1.453       .  S
C2474      C2478   1.452       .  S
C2475      N2482   1.157       .  T
C2476      N2483   1.157       .  T
C2477      N2481   1.158       .  T
C2478      N2484   1.157       .  T
C2479      N2488   1.157       .  T
C2480      N2486   1.157       .  T
C2489      C2490   1.412       .  A
C2489      C2494   1.414       .  A
C2489      C2507   1.450       .  S
C2490      C2495   1.499       .  S
C2490      C2491   1.414       .  A
C2491      C2492   1.409       .  A
C2491      C2496   1.452       .  S
C2492      C2493   1.411       .  A
C2492      C2508   1.452       .  S
C2493      C2494   1.412       .  A
C2494      C2497   1.450       .  S
C2495      C2498   1.408       .  A
C2495      C2502   1.412       .  A
C2496      N2513   1.157       .  T
C2497      N2515   1.157       .  T
C2498      C2499   1.407       .  A
C2498      C2503   1.453       .  S
C2499      C2500   1.419       .  A
C2499      C2505   1.452       .  S
C2500      C2501   1.415       .  A
C2501      C2502   1.416       .  A
C2501      C2504   1.450       .  S
C2502      C2506   1.449       .  S
C2503      N2510   1.157       .  T
C2504      N2511   1.157       .  T
C2505      N2509   1.157       .  T
C2506      N2512   1.157       .  T
C2507      N2516   1.157       .  T
C2508      N2514   1.157       .  T
C2517      C2518   1.409       .  A
C2517      C2522   1.407       .  A
C2517      C2535   1.451       .  S
C2518      C2523   1.488       .  S
C2518      C2519   1.409       .  A
C2519      C2520   1.409       .  A
C2519      C2524   1.451       .  S
C2520      C2521   1.414       .  A
C2520      C2536   1.450       .  S
C2521      C2522   1.414       .  A
C2522      C2525   1.452       .  S
C2523      C2526   1.411       .  A
C2523      C2530   1.408       .  A
C2524      N2541   1.157       .  T
C2525      N2543   1.157       .  T
C2526      C2527   1.405       .  A
C2526      C2531   1.453       .  S
C2527      C2528   1.414       .  A
C2527      C2533   1.453       .  S
C2528      C2529   1.414       .  A
C2529      C2530   1.410       .  A
C2529      C2532   1.450       .  S
C2530      C2534   1.449       .  S
C2531      N2538   1.157       .  T
C2532      N2539   1.157       .  T
C2533      N2537   1.158       .  T
C2534      N2540   1.157       .  T
C2535      N2544   1.157       .  T
C2536      N2542   1.157       .  T
