geometry optimzed in LAMMPS
_audit_creation_date              2020-12-01 
_audit_creation_method            'lammps2cif' 
_symmetry_space_group_name_H-M    'P1' 
_symmetry_Int_Tables_number       1 
_symmetry_cell_setting            triclinic 
loop_ 
_symmetry_equiv_pos_as_xyz 
  x,y,z 
_cell_length_a                    35.96866314 
_cell_length_b                    35.9525566519651 
_cell_length_c                    26.907912008220528 
_cell_angle_alpha                 89.88241305828868 
_cell_angle_beta                  89.90395583384776 
_cell_angle_gamma                 89.93018270129426 
loop_ 
_atom_site_label 
_atom_site_type_symbol 
_atom_site_fract_x 
_atom_site_fract_y 
_atom_site_fract_z 
_atom_site_charge 
O1          O  0.09634684  0.04992754  0.65022255    -0.83100
O2          O  0.09232205  0.98896369  0.71172424    -0.80100
C3          C  0.09224726  0.00312347  0.75469307     1.00400
O4          O  0.06473507  0.02155941  0.77024070    -0.80200
O5          O  0.99653622  0.05953582  0.76847879    -0.82800
C6          C  0.00247449  0.09234386  0.75390708     1.04900
O7          O  0.01514600  0.09860026  0.71114680    -0.75600
O8          O  0.05215007  0.08750946  0.62355406    -0.75700
C9          C  0.08615705  0.08125123  0.63375362     1.04900
O10         O  0.04718995  0.51412282  0.58075012    -0.83100
O11         O  0.03627958  0.45698513  0.64829372    -0.80100
C12         C  0.02725479  0.44096906  0.68830901     1.00400
O13         O  0.02892144  0.45801296  0.72910295    -0.80200
O14         O  0.46555099  0.99759871  0.71737969    -0.82800
C15         C  0.44334073  0.02032305  0.69801031     1.04900
O16         O  0.45448248  0.05104262  0.68003555    -0.75600
O17         O  0.49167081  0.03647696  0.59451866    -0.75700
C18         C  0.01427409  0.01998330  0.56665787     1.04800
Cr19       Cr  0.06521791  0.00427666  0.65005734     1.93700
Cr20       Cr  0.01515652  0.01080567  0.74172566     1.93200
Cr21       Cr  0.00531877  0.06543988  0.65421577     1.39100
O22         O  0.02866937  0.02729456  0.68206745    -1.20800
O23         O  0.16343749  0.19488830  0.61996165    -0.83100
O24         O  0.15003908  0.23110682  0.70674631    -0.80100
C25         C  0.15503382  0.24367363  0.74968065     1.00400
O26         O  0.18725762  0.25048285  0.76578615    -0.80200
O27         O  0.22712032  0.18384638  0.77106677    -0.82800
C28         C  0.24613588  0.15633847  0.75701766     1.04900
O29         O  0.25995857  0.15540298  0.71373771    -0.75600
O30         O  0.19862721  0.15091702  0.65221935    -0.75700
C31         C  0.16818343  0.16118728  0.63319645     1.04900
O32         O  0.21514950  0.25564027  0.59376245    -0.83100
O33         O  0.19644902  0.29312112  0.67857443    -0.80100
C34         C  0.22619594  0.30502458  0.69822941     1.00400
O35         O  0.24961571  0.28303677  0.71638584    -0.80200
O36         O  0.29029720  0.22065367  0.72848157    -0.82800
C37         C  0.30724116  0.22162581  0.68737890     1.04900
O38         O  0.29167938  0.21066941  0.64808300    -0.75600
O39         O  0.23509566  0.19906776  0.58094872    -0.75700
C40         C  0.23102362  0.23224823  0.56643571     1.04800
Cr41       Cr  0.18414983  0.24186778  0.65165666     1.93700
Cr42       Cr  0.23708063  0.23320931  0.74089475     1.93200
Cr43       Cr  0.24458784  0.18165543  0.65093066     1.39100
O44         O  0.22157294  0.21882744  0.68137402    -1.20800
O45         O  0.30462634  0.33568840  0.37667710    -0.83100
O46         O  0.26852975  0.34888236  0.28973534    -0.80100
C47         C  0.25593930  0.34380258  0.24683199     1.00400
O48         O  0.24915867  0.31152716  0.23084912    -0.80200
O49         O  0.31579933  0.27166903  0.22587074    -0.82800
C50         C  0.34330240  0.25269571  0.24003744     1.04900
O51         O  0.34421374  0.23893882  0.28337401    -0.75600
O52         O  0.34860624  0.30039469  0.34470708    -0.75700
C53         C  0.33832545  0.33090370  0.36354756     1.04900
O54         O  0.24386519  0.28402193  0.40295596    -0.83100
O55         O  0.20651586  0.30252789  0.31795640    -0.80100
C56         C  0.19463571  0.27272426  0.29841146     1.00400
O57         O  0.21662743  0.24923168  0.28045252    -0.80200
O58         O  0.27900531  0.20851542  0.26861199    -0.82800
C59         C  0.27798878  0.19162920  0.30976958     1.04900
O60         O  0.28889196  0.20727641  0.34903406    -0.75600
O61         O  0.30037809  0.26402296  0.41598637    -0.75700
C62         C  0.26719963  0.26816828  0.43040113     1.04800
Cr63       Cr  0.25770777  0.31489054  0.34495480     1.93700
Cr64       Cr  0.26644157  0.26173584  0.25597826     1.93200
Cr65       Cr  0.31788466  0.25440655  0.34608299     1.39100
O66         O  0.28076152  0.27737450  0.31546377    -1.20800
O67         O  0.44955158  0.40273965  0.34625114    -0.83100
O68         O  0.51056079  0.40676771  0.28485224    -0.80100
C69         C  0.49649518  0.40689186  0.24182379     1.00400
O70         O  0.47805191  0.43440816  0.22626817    -0.80200
O71         O  0.44002141  0.50259453  0.22803052    -0.82800
C72         C  0.40722559  0.49667246  0.24261085     1.04900
O73         O  0.40097171  0.48401236  0.28537993    -0.75600
O74         O  0.41205103  0.44697255  0.37297639    -0.75700
C75         C  0.41826310  0.41294938  0.36275632     1.04900
O76         O  0.98540545  0.45189369  0.41582941    -0.83100
O77         O  0.04255548  0.46278907  0.34835488    -0.80100
C78         C  0.05859926  0.47185901  0.30838667     1.00400
O79         O  0.04158859  0.47030563  0.26754695    -0.80200
O80         O  0.50202663  0.03358675  0.27906110    -0.82800
C81         C  0.47937693  0.05580823  0.29853228     1.04900
O82         O  0.44866618  0.04468633  0.31649960    -0.75600
O83         O  0.46321175  0.00746736  0.40193055    -0.75700
C84         C  0.47947724  0.48483712  0.42987144     1.04800
Cr85       Cr  0.49520493  0.43385557  0.34650686     1.93700
Cr86       Cr  0.48874902  0.48399306  0.25482934     1.93200
Cr87       Cr  0.43412355  0.49381904  0.34229316     1.39100
O88         O  0.47224043  0.47044696  0.31446350    -1.20800
O89         O  0.40052104  0.30156388  0.84066449    -0.83100
O90         O  0.40390360  0.24101686  0.77771056    -0.80100
C91         C  0.40495965  0.25427440  0.73412789     1.00400
O92         O  0.43281841  0.27224444  0.71882312    -0.80200
O93         O  0.50070552  0.30992778  0.72224518    -0.82800
C94         C  0.49400626  0.34263419  0.73644131     1.04900
O95         O  0.48126582  0.34885795  0.77919833    -0.75600
O96         O  0.44540810  0.33770389  0.86798690    -0.75700
C97         C  0.41129707  0.33234579  0.85818860     1.04900
O98         O  0.44969533  0.26366833  0.90929237    -0.83100
O99         O  0.45921002  0.20701015  0.84102549    -0.80100
C100        C  0.46864216  0.19110508  0.80113829     1.00400
O101        O  0.46782415  0.20847371  0.76049160    -0.80200
O102        O  0.03125873  0.24770514  0.77384505    -0.82800
C103        C  0.05330533  0.27068259  0.79282788     1.04900
O104        O  0.04203082  0.30152741  0.80982228    -0.75600
O105        O  0.00527570  0.28597623  0.89560767    -0.75700
C106        C  0.48264120  0.26937436  0.92344304     1.04800
Cr107      Cr  0.43108046  0.25510619  0.83982277     1.93700
Cr108      Cr  0.48193990  0.26123753  0.74859026     1.93200
Cr109      Cr  0.49148762  0.31558738  0.83616752     1.39100
O110        O  0.46797676  0.27772383  0.80810484    -1.20800
O111        O  0.34594548  0.44978767  0.85079815    -0.83100
O112        O  0.34196818  0.51058714  0.78884022    -0.80100
C113        C  0.34223517  0.49581164  0.74630273     1.00400
O114        O  0.31500298  0.47676221  0.73137993    -0.80200
O115        O  0.24686666  0.43837630  0.73434063    -0.82800
C116        C  0.25196588  0.40585092  0.75059479     1.04900
O117        O  0.26396364  0.40043029  0.79381796    -0.75600
O118        O  0.30177636  0.41311396  0.87958749    -0.75700
C119        C  0.33547522  0.41843518  0.86699497     1.04900
O120        O  0.29746497  0.98713867  0.92092462    -0.83100
O121        O  0.28594223  0.04350175  0.85140798    -0.80100
C122        C  0.27660199  0.05871676  0.81085876     1.00400
O123        O  0.27826986  0.04086129  0.77063913    -0.80200
O124        O  0.21525392  0.50120313  0.78287277    -0.82800
C125        C  0.19307386  0.47925092  0.80382332     1.04900
O126        O  0.20411286  0.44926887  0.82388813    -0.75600
O127        O  0.24173057  0.46519561  0.90848301    -0.75700
C128        C  0.26466290  0.48155026  0.93583750     1.04800
Cr129      Cr  0.31500864  0.49587657  0.85087427     1.93700
Cr130      Cr  0.26508914  0.48769670  0.75953746     1.93200
Cr131      Cr  0.25489816  0.43499617  0.84942440     1.39100
O132        O  0.27833994  0.47244663  0.81987039    -1.20800
O133        O  0.04973128  0.15310513  0.14595339    -0.83100
O134        O  0.98908235  0.15718138  0.20801273    -0.80100
C135        C  0.00391232  0.15694630  0.25051624     1.00400
O136        O  0.02296637  0.18420408  0.26536848    -0.80200
O137        O  0.06136484  0.25233972  0.26211941    -0.82800
C138        C  0.09384691  0.24709285  0.24587711     1.04900
O139        O  0.09920314  0.23500836  0.20268994    -0.75600
O140        O  0.08637099  0.19722066  0.11695515    -0.75700
C141        C  0.08106230  0.16354160  0.12970636     1.04900
O142        O  0.51239953  0.20164790  0.07580939    -0.83100
O143        O  0.45612155  0.21316765  0.14543020    -0.80100
C144        C  0.44096579  0.22249543  0.18601489     1.00400
O145        O  0.45890618  0.22093977  0.22617347    -0.80200
O146        O  0.99853499  0.28393491  0.21358916    -0.82800
C147        C  0.02051929  0.30608480  0.19263993     1.04900
O148        O  0.05047908  0.29498540  0.17262697    -0.75600
O149        O  0.03437207  0.25733438  0.08810052    -0.75700
C150        C  0.01791511  0.23441127  0.06083234     1.04800
Cr151      Cr  0.00367811  0.18408262  0.14589716     1.93700
Cr152      Cr  0.01202700  0.23411089  0.23708741     1.93200
Cr153      Cr  0.06461553  0.24414279  0.14711839     1.39100
O154        O  0.02717307  0.22077182  0.17676645    -1.20800
O155        O  0.19787105  0.09852061  0.15654797    -0.83100
O156        O  0.25845668  0.09506198  0.21944887    -0.80100
C157        C  0.24531128  0.09388266  0.26307743     1.00400
O158        O  0.22742199  0.06594607  0.27834162    -0.80200
O159        O  0.18969527  0.99805941  0.27463804    -0.82800
C160        C  0.15700429  0.00487343  0.26050331     1.04900
O161        O  0.15076582  0.01772393  0.21780317    -0.75600
O162        O  0.16181068  0.05363943  0.12903513    -0.75700
C163        C  0.16713430  0.08775010  0.13890742     1.04900
O164        O  0.23572973  0.04947327  0.08774931    -0.83100
O165        O  0.29245622  0.03992807  0.15591071    -0.80100
C166        C  0.30841769  0.03040336  0.19572741     1.00400
O167        O  0.29109095  0.03101377  0.23640038    -0.80200
O168        O  0.25180752  0.46754874  0.22280565    -0.82800
C169        C  0.22879175  0.44553799  0.20383606     1.04900
O170        O  0.19792588  0.45686836  0.18700194    -0.75600
O171        O  0.21342974  0.49376683  0.10126395    -0.75700
C172        C  0.22998835  0.01654685  0.07348184     1.04800
Cr173      Cr  0.24434184  0.06798990  0.15726250     1.93700
Cr174      Cr  0.23835737  0.01687089  0.24831568     1.93200
Cr175      Cr  0.18393104  0.00752301  0.16078579     1.39100
O176        O  0.22180706  0.03098845  0.18887754    -1.20800
C177        C  0.11167029  0.13684796  0.12739291    -0.11000
C178        C  0.13726569  0.11462026  0.13056084    -0.12600
C179        C  0.24246635  0.00473920  0.02486896    -0.11000
C180        C  0.25317046  0.49400037  0.98460216    -0.12600
C181        C  0.49457828  0.25676624  0.97195435    -0.11000
C182        C  0.00535200  0.24593310  0.01211562    -0.12600
C183        C  0.38442268  0.36223206  0.86644085    -0.11000
C184        C  0.36217014  0.38782188  0.86946497    -0.12600
C185        C  0.48806614  0.09465794  0.29559573    -0.11000
C186        C  0.99700069  0.12517561  0.28138187    -0.12600
C187        C  0.01209608  0.34488514  0.19613212    -0.11000
C188        C  0.50349455  0.37528306  0.21099022    -0.12600
C189        C  0.09655947  0.48378863  0.30694339    -0.11000
C190        C  0.12604657  0.99462505  0.29127085    -0.12600
C191        C  0.37616308  0.50759710  0.21229131    -0.11000
C192        C  0.34659720  0.01871397  0.19716503    -0.12600
C193        C  0.36542236  0.36080467  0.36922704    -0.11000
C194        C  0.38902416  0.38517944  0.36897732    -0.12600
C195        C  0.24614402  0.37588269  0.21832811    -0.11000
C196        C  0.23709846  0.40669119  0.20578039    -0.12600
C197        C  0.25341493  0.12454582  0.29516526    -0.11000
C198        C  0.26466266  0.15411187  0.30973219    -0.12600
C199        C  0.40290835  0.23447390  0.18926178    -0.11000
C200        C  0.37369144  0.24460499  0.20688127    -0.12600
C201        C  0.12557803  0.25728206  0.27534167    -0.11000
C202        C  0.15557690  0.26606359  0.29164115    -0.12600
C203        C  0.24449362  0.24366117  0.51829365    -0.11000
C204        C  0.25571540  0.25480181  0.47856680    -0.12600
C205        C  0.09212645  0.26236980  0.79072665    -0.11000
C206        C  0.12291878  0.25338017  0.77811750    -0.12600
C207        C  0.37427248  0.24619274  0.70210849    -0.11000
C208        C  0.34472886  0.23495374  0.68751145    -0.12600
C209        C  0.25422538  0.12596907  0.79022921    -0.11000
C210        C  0.26446227  0.09674238  0.80775110    -0.10200
C211        C  0.24171255  0.37413569  0.72110488    -0.11000
C212        C  0.23288368  0.34411575  0.70487122    -0.12600
C213        C  0.00235726  0.00766759  0.51827548    -0.11000
C214        C  0.49164424  0.49680224  0.47828650    -0.12600
C215        C  0.11393458  0.11048426  0.62758213    -0.11000
C216        C  0.13831072  0.13408052  0.62741465    -0.12600
C217        C  0.15430189  0.48774024  0.80030534    -0.11000
C218        C  0.12391122  0.99623800  0.78546879    -0.12600
C219        C  0.40449488  0.01172110  0.70111922    -0.11000
C220        C  0.37399467  0.50277196  0.71545507    -0.12600
C221        C  0.48045951  0.15295699  0.79957678    -0.11000
C222        C  0.99153849  0.12340477  0.78422864    -0.12600
C223        C  0.50425590  0.37360315  0.70563021    -0.11000
C224        C  0.01521992  0.40302721  0.68987926    -0.12600
O225        O  0.09637485  0.54997341  0.65022079    -0.83100
O226        O  0.09235906  0.48901833  0.71173012    -0.80100
C227        C  0.09226297  0.50316667  0.75470687     1.00400
O228        O  0.06474060  0.52158716  0.77025135    -0.80200
O229        O  0.99653060  0.55952855  0.76847940    -0.82800
C230        C  0.00248812  0.59234155  0.75394394     1.04900
O231        O  0.01518009  0.59861341  0.71119741    -0.75600
O232        O  0.05216893  0.58755394  0.62357741    -0.75700
C233        C  0.08617770  0.58129652  0.63376002     1.04900
O234        O  0.04716180  0.01408501  0.58074449    -0.83100
O235        O  0.03622740  0.95695422  0.64830443    -0.80100
C236        C  0.02720165  0.94094531  0.68832527     1.00400
O237        O  0.02886742  0.95799482  0.72911684    -0.80200
O238        O  0.46553567  0.49759746  0.71740747    -0.82800
C239        C  0.44331979  0.52030505  0.69801392     1.04900
O240        O  0.45445217  0.55102037  0.68001428    -0.75600
O241        O  0.49164199  0.53647102  0.59450645    -0.75700
C242        C  0.01429976  0.52002165  0.56667294     1.04800
Cr243      Cr  0.06525599  0.50431706  0.65005688     1.93700
Cr244      Cr  0.01517933  0.51081414  0.74171378     1.93200
Cr245      Cr  0.00534753  0.56547316  0.65424216     1.39100
O246        O  0.02870156  0.52732217  0.68207031    -1.20800
O247        O  0.16344806  0.69493638  0.61999269    -0.83100
O248        O  0.15004418  0.73117693  0.70676161    -0.80100
C249        C  0.15504067  0.74370670  0.74971572     1.00400
O250        O  0.18726615  0.75047593  0.76584491    -0.80200
O251        O  0.22711968  0.68382862  0.77107678    -0.82800
C252        C  0.24614284  0.65632839  0.75701848     1.04900
O253        O  0.25997329  0.65541274  0.71374323    -0.75600
O254        O  0.19862989  0.65095088  0.65224035    -0.75700
C255        C  0.16819033  0.66123175  0.63321615     1.04900
O256        O  0.21518596  0.75566811  0.59378843    -0.83100
O257        O  0.19649722  0.79315678  0.67859720    -0.80100
C258        C  0.22623543  0.80504473  0.69829060     1.00400
O259        O  0.24962996  0.78304723  0.71648611    -0.80200
O260        O  0.29030064  0.72065164  0.72851192    -0.82800
C261        C  0.30723920  0.72164455  0.68740539     1.04900
O262        O  0.29167933  0.71069419  0.64810529    -0.75600
O263        O  0.23509290  0.69908541  0.58096942    -0.75700
C264        C  0.23103331  0.73226501  0.56645149     1.04800
Cr265      Cr  0.18417500  0.74191131  0.65168236     1.93700
Cr266      Cr  0.23708647  0.73320622  0.74094280     1.93200
Cr267      Cr  0.24459196  0.68167880  0.65095114     1.39100
O268        O  0.22158251  0.71885058  0.68140735    -1.20800
O269        O  0.30459117  0.83569112  0.37664027    -0.83100
O270        O  0.26846773  0.84887597  0.28971956    -0.80100
C271        C  0.25589505  0.84379668  0.24680712     1.00400
O272        O  0.24914076  0.81151986  0.23080848    -0.80200
O273        O  0.31580335  0.77168273  0.22585425    -0.82800
C274        C  0.34330423  0.75270771  0.24002775     1.04900
O275        O  0.34420297  0.73894181  0.28335899    -0.75600
O276        O  0.34857961  0.80039420  0.34469362    -0.75700
C277        C  0.33829446  0.83090625  0.36352105     1.04900
O278        O  0.24383960  0.78399438  0.40293279    -0.83100
O279        O  0.20648587  0.80247922  0.31794279    -0.80100
C280        C  0.19462177  0.77267668  0.29837808     1.00400
O281        O  0.21662264  0.74920692  0.28038545    -0.80200
O282        O  0.27901540  0.70851443  0.26856911    -0.82800
C283        C  0.27798606  0.69162707  0.30972552     1.04900
O284        O  0.28887440  0.70727299  0.34899774    -0.75600
O285        O  0.30035515  0.76401152  0.41596482    -0.75700
C286        C  0.26717660  0.76814866  0.43038033     1.04800
Cr287      Cr  0.25767122  0.81487078  0.34493210     1.93700
Cr288      Cr  0.26643828  0.76173194  0.25593733     1.93200
Cr289      Cr  0.31786342  0.75440346  0.34606039     1.39100
O290        O  0.28074046  0.77736747  0.31543400    -1.20800
O291        O  0.44955855  0.90271142  0.34624798    -0.83100
O292        O  0.51057454  0.90673887  0.28485485    -0.80100
C293        C  0.49650549  0.90687241  0.24182864     1.00400
O294        O  0.47806632  0.93439280  0.22628156    -0.80200
O295        O  0.44004729  0.00258217  0.22805198    -0.82800
C296        C  0.40725064  0.99667132  0.24264008     1.04900
O297        O  0.40099943  0.98400559  0.28540700    -0.75600
O298        O  0.41207591  0.94695166  0.37299250    -0.75700
C299        C  0.41827148  0.91292834  0.36275305     1.04900
O300        O  0.98541555  0.95190213  0.41576828    -0.83100
O301        O  0.04255484  0.96280554  0.34828470    -0.80100
C302        C  0.05859670  0.97186645  0.30831325     1.00400
O303        O  0.04158624  0.97030623  0.26747293    -0.80200
O304        O  0.50199037  0.53360999  0.27904974    -0.82800
C305        C  0.47934134  0.55582898  0.29852752     1.04900
O306        O  0.44862407  0.54470763  0.31647511    -0.75600
O307        O  0.46316569  0.50750009  0.40191020    -0.75700
C308        C  0.47951330  0.98479803  0.42989316     1.04800
Cr309      Cr  0.49522248  0.93381902  0.34651630     1.93700
Cr310      Cr  0.48877550  0.98397094  0.25484528     1.93200
Cr311      Cr  0.43415909  0.99379820  0.34231636     1.39100
O312        O  0.47226798  0.97042133  0.31447941    -1.20800
O313        O  0.40054556  0.80159782  0.84072014    -0.83100
O314        O  0.40388525  0.74106423  0.77773996    -0.80100
C315        C  0.40493903  0.75432394  0.73415770     1.00400
O316        O  0.43279953  0.77228677  0.71884576    -0.80200
O317        O  0.50071152  0.80992384  0.72223561    -0.82800
C318        C  0.49403043  0.84263243  0.73643679     1.04900
O319        O  0.48130004  0.84885912  0.77919799    -0.75600
O320        O  0.44545582  0.83772795  0.86799913    -0.75700
C321        C  0.41133823  0.83237976  0.85822718     1.04900
O322        O  0.44972865  0.76366671  0.90930549    -0.83100
O323        O  0.45919891  0.70701931  0.84101521    -0.80100
C324        C  0.46860850  0.69111413  0.80111882     1.00400
O325        O  0.46777392  0.70848653  0.76047589    -0.80200
O326        O  0.03126846  0.74769048  0.77392942    -0.82800
C327        C  0.05330767  0.77067879  0.79290393     1.04900
O328        O  0.04202069  0.80152087  0.80989310    -0.75600
O329        O  0.00524221  0.78596340  0.89566053    -0.75700
C330        C  0.48267855  0.76936619  0.92344395     1.04800
Cr331      Cr  0.43108713  0.75512710  0.83984365     1.93700
Cr332      Cr  0.48192012  0.76124410  0.74858286     1.93200
Cr333      Cr  0.49151814  0.81558343  0.83616307     1.39100
O334        O  0.46798222  0.77773255  0.80810888    -1.20800
O335        O  0.34598113  0.94983187  0.85080932    -0.83100
O336        O  0.34198922  0.01063213  0.78885047    -0.80100
C337        C  0.34225304  0.99586023  0.74631048     1.00400
O338        O  0.31502045  0.97681201  0.73138662    -0.80200
O339        O  0.24689706  0.93840508  0.73435763    -0.82800
C340        C  0.25202186  0.90588159  0.75060661     1.04900
O341        O  0.26403275  0.90046713  0.79382424    -0.75600
O342        O  0.30181892  0.91315819  0.87961190    -0.75700
C343        C  0.33551779  0.91848033  0.86701793     1.04900
O344        O  0.29744587  0.48710443  0.92091857    -0.83100
O345        O  0.28592467  0.54346763  0.85139189    -0.80100
C346        C  0.27659250  0.55868324  0.81083903     1.00400
O347        O  0.27826130  0.54082450  0.77062164    -0.80200
O348        O  0.21526697  0.00122617  0.78289370    -0.82800
C349        C  0.19309109  0.97925358  0.80381444     1.04900
O350        O  0.20414521  0.94927311  0.82387163    -0.75600
O351        O  0.24175113  0.96522643  0.90847946    -0.75700
C352        C  0.26467888  0.98158819  0.93583479     1.04800
Cr353      Cr  0.31503341  0.99591615  0.85088506     1.93700
Cr354      Cr  0.26510699  0.98773266  0.75955174     1.93200
Cr355      Cr  0.25493720  0.93502497  0.84942883     1.39100
O356        O  0.27836798  0.97248259  0.81988005    -1.20800
O357        O  0.04972139  0.65307591  0.14597866    -0.83100
O358        O  0.98905885  0.65715896  0.20801928    -0.80100
C359        C  0.00387894  0.65693311  0.25052889     1.00400
O360        O  0.02293343  0.68419158  0.26537554    -0.80200
O361        O  0.06135362  0.75230585  0.26210764    -0.82800
C362        C  0.09383390  0.74704120  0.24586806     1.04900
O363        O  0.09918860  0.73496101  0.20267818    -0.75600
O364        O  0.08634491  0.69718648  0.11693509    -0.75700
C365        C  0.08104547  0.66351033  0.12970712     1.04900
O366        O  0.51241165  0.70164174  0.07583186    -0.83100
O367        O  0.45613785  0.71316316  0.14546098    -0.80100
C368        C  0.44098170  0.72249189  0.18604525     1.00400
O369        O  0.45892153  0.72093035  0.22620413    -0.80200
O370        O  0.99853129  0.78392128  0.21356834    -0.82800
C371        C  0.02052397  0.80606604  0.19262595     1.04900
O372        O  0.05048545  0.79495771  0.17262711    -0.75600
O373        O  0.03434634  0.75730848  0.08811326    -0.75700
C374        C  0.01789423  0.73438136  0.06084688     1.04800
Cr375      Cr  0.00366776  0.68405087  0.14590131     1.93700
Cr376      Cr  0.01200993  0.73409529  0.23707775     1.93200
Cr377      Cr  0.06460200  0.74411028  0.14711285     1.39100
O378        O  0.02715851  0.72074493  0.17676467    -1.20800
O379        O  0.19785337  0.59849406  0.15652570    -0.83100
O380        O  0.25844993  0.59504907  0.21940614    -0.80100
C381        C  0.24530632  0.59388096  0.26303641     1.00400
O382        O  0.22741575  0.56595039  0.27831482    -0.80200
O383        O  0.18969744  0.49805957  0.27466383    -0.82800
C384        C  0.15700197  0.50486388  0.26053643     1.04900
O385        O  0.15075550  0.51770098  0.21783011    -0.75600
O386        O  0.16178855  0.55360429  0.12904441    -0.75700
C387        C  0.16711436  0.58771823  0.13889892     1.04900
O388        O  0.23569442  0.54943452  0.08773411    -0.83100
O389        O  0.29243111  0.53989820  0.15587399    -0.80100
C390        C  0.30840003  0.53038633  0.19568963     1.00400
O391        O  0.29108370  0.53101648  0.23637016    -0.80200
O392        O  0.25180546  0.96754991  0.22278769    -0.82800
C393        C  0.22878541  0.94554654  0.20380939     1.04900
O394        O  0.19792676  0.95688860  0.18696574    -0.75600
O395        O  0.21344665  0.99380728  0.10124609    -0.75700
C396        C  0.22996551  0.51650185  0.07348607     1.04800
Cr397      Cr  0.24432168  0.56796398  0.15723537     1.93700
Cr398      Cr  0.23835425  0.51687073  0.24831421     1.93200
Cr399      Cr  0.18391677  0.50749389  0.16080536     1.39100
O400        O  0.22179285  0.53097075  0.18887555    -1.20800
C401        C  0.11165337  0.63681782  0.12738572    -0.11000
C402        C  0.13724629  0.61458749  0.13054959    -0.12600
C403        C  0.24245077  0.50468484  0.02487999    -0.11000
C404        C  0.25318065  0.99404912  0.98459159    -0.12600
C405        C  0.49462238  0.75675324  0.97195267    -0.11000
C406        C  0.00531245  0.74590617  0.01214416    -0.12600
C407        C  0.38447335  0.86227794  0.86648344    -0.11000
C408        C  0.36221975  0.88786968  0.86950007    -0.12600
C409        C  0.48804376  0.59467631  0.29562441    -0.11000
C410        C  0.99696130  0.62517106  0.28140785    -0.12600
C411        C  0.01210517  0.84486938  0.19610534    -0.11000
C412        C  0.50349456  0.87526992  0.21098617    -0.12600
C413        C  0.09655455  0.98379324  0.30687333    -0.11000
C414        C  0.12604846  0.49462019  0.29132244    -0.12600
C415        C  0.37618487  0.00761320  0.21233328    -0.11000
C416        C  0.34657631  0.51869237  0.19711749    -0.12600
C417        C  0.36539700  0.86080685  0.36920031    -0.11000
C418        C  0.38901497  0.88516900  0.36895524    -0.12600
C419        C  0.24610431  0.87587971  0.21830222    -0.11000
C420        C  0.23707560  0.90669444  0.20575534    -0.12600
C421        C  0.25341414  0.62454690  0.29511282    -0.11000
C422        C  0.26466147  0.65411149  0.30968019    -0.12600
C423        C  0.40292616  0.73448167  0.18928744    -0.11000
C424        C  0.37370448  0.74462030  0.20688709    -0.12600
C425        C  0.12556637  0.75721220  0.27533614    -0.11000
C426        C  0.15556644  0.76599360  0.29162766    -0.12600
C427        C  0.24448577  0.74366232  0.51829282    -0.11000
C428        C  0.25569697  0.75478896  0.47855287    -0.12600
C429        C  0.09213353  0.76238293  0.79079027    -0.11000
C430        C  0.12292612  0.75340451  0.77816339    -0.12600
C431        C  0.37425409  0.74624185  0.70213934    -0.11000
C432        C  0.34471791  0.73499076  0.68753755    -0.12600
C433        C  0.25423054  0.62594566  0.79021221    -0.11000
C434        C  0.26446159  0.59671292  0.80772527    -0.10200
C435        C  0.24177467  0.87415996  0.72112642    -0.11000
C436        C  0.23294309  0.84413448  0.70491403    -0.12600
C437        C  0.00237231  0.50768954  0.51830413    -0.11000
C438        C  0.49167967  0.99676214  0.47831278    -0.12600
C439        C  0.11394783  0.61053176  0.62758242    -0.11000
C440        C  0.13831885  0.63413060  0.62741832    -0.12600
C441        C  0.15431069  0.98771772  0.80027024    -0.11000
C442        C  0.12391035  0.49627677  0.78550176    -0.12600
C443        C  0.40447616  0.51168659  0.70111664    -0.11000
C444        C  0.37401184  0.00281796  0.71546214    -0.12600
C445        C  0.48042395  0.65296493  0.79954639    -0.11000
C446        C  0.99154704  0.62338852  0.78428815    -0.12600
C447        C  0.50428748  0.87359935  0.70562652    -0.11000
C448        C  0.01517640  0.90300082  0.68990523    -0.12600
O449        O  0.59636796  0.04998300  0.65022696    -0.83100
O450        O  0.59232008  0.98902507  0.71173043    -0.80100
C451        C  0.59221535  0.00317450  0.75470604     1.00400
O452        O  0.56469066  0.02159735  0.77023739    -0.80200
O453        O  0.49651034  0.05957047  0.76841563    -0.82800
C454        C  0.50250519  0.09237981  0.75389584     1.04900
O455        O  0.51519817  0.09865170  0.71114867    -0.75600
O456        O  0.55218265  0.08756478  0.62352737    -0.75700
C457        C  0.58618344  0.08130255  0.63374048     1.04900
O458        O  0.54716900  0.51414993  0.58071489    -0.83100
O459        O  0.53621913  0.45700055  0.64824857    -0.80100
C460        C  0.52718049  0.44099037  0.68826525     1.00400
O461        O  0.52884167  0.45804095  0.72905460    -0.80200
O462        O  0.96554978  0.99754304  0.71752301    -0.82800
C463        C  0.94332861  0.02023407  0.69810362     1.04900
O464        O  0.95445474  0.05094065  0.68006869    -0.75600
O465        O  0.99163339  0.03639305  0.59454554    -0.75700
C466        C  0.51431039  0.02004571  0.56665029     1.04800
Cr467      Cr  0.56524078  0.00433313  0.65004390     1.93700
Cr468      Cr  0.51513602  0.01084838  0.74166210     1.93200
Cr469      Cr  0.50535411  0.06551493  0.65419185     1.39100
O470        O  0.52868509  0.02735254  0.68203213    -1.20800
O471        O  0.66344727  0.19492818  0.61997853    -0.83100
O472        O  0.65004753  0.23116624  0.70675409    -0.80100
C473        C  0.65505312  0.24371613  0.74969583     1.00400
O474        O  0.68728153  0.25049949  0.76580535    -0.80200
O475        O  0.72713741  0.18385778  0.77106149    -0.82800
C476        C  0.74615185  0.15635022  0.75700812     1.04900
O477        O  0.75997936  0.15542391  0.71373179    -0.75600
O478        O  0.69862220  0.15094930  0.65225694    -0.75700
C479        C  0.66818831  0.16122722  0.63321526     1.04900
O480        O  0.71517373  0.25565556  0.59377982    -0.83100
O481        O  0.69647783  0.29315347  0.67857138    -0.80100
C482        C  0.72622346  0.30505087  0.69823292     1.00400
O483        O  0.74963510  0.28305926  0.71640152    -0.80200
O484        O  0.79031095  0.22066914  0.72844945    -0.82800
C485        C  0.80723680  0.22166122  0.68733342     1.04900
O486        O  0.79166887  0.21069165  0.64804867    -0.75600
O487        O  0.73505833  0.19906352  0.58096339    -0.75700
C488        C  0.73101518  0.23224490  0.56645110     1.04800
Cr489      Cr  0.68416569  0.24190396  0.65166570     1.93700
Cr490      Cr  0.73709900  0.23322601  0.74089781     1.93200
Cr491      Cr  0.74458288  0.18167308  0.65093588     1.39100
O492        O  0.72157982  0.21885109  0.68138307    -1.20800
O493        O  0.80461422  0.33569813  0.37668310    -0.83100
O494        O  0.76844923  0.34887672  0.28978205    -0.80100
C495        C  0.75584009  0.34378895  0.24689035     1.00400
O496        O  0.74909514  0.31150653  0.23090654    -0.80200
O497        O  0.81578056  0.27169311  0.22593281    -0.82800
C498        C  0.84328554  0.25271671  0.24009206     1.04900
O499        O  0.84418917  0.23893461  0.28341450    -0.75600
O500        O  0.84859232  0.30036769  0.34476915    -0.75700
C501        C  0.83831800  0.33088983  0.36357796     1.04900
O502        O  0.74386534  0.28401066  0.40301673    -0.83100
O503        O  0.70648656  0.30246997  0.31805568    -0.80100
C504        C  0.69461922  0.27266439  0.29850022     1.00400
O505        O  0.71661756  0.24919139  0.28050764    -0.80200
O506        O  0.77901545  0.20850926  0.26863983    -0.82800
C507        C  0.77797461  0.19161685  0.30979106     1.04900
O508        O  0.78886046  0.20726021  0.34906671    -0.75600
O509        O  0.80037248  0.26399508  0.41602877    -0.75700
C510        C  0.76719843  0.26814579  0.43044595     1.04800
Cr511      Cr  0.75768027  0.31487507  0.34501026     1.93700
Cr512      Cr  0.76642250  0.26172640  0.25602798     1.93200
Cr513      Cr  0.81786286  0.25438755  0.34612779     1.39100
O514        O  0.78074006  0.27736469  0.31551420    -1.20800
O515        O  0.94959609  0.40269545  0.34623550    -0.83100
O516        O  0.01061430  0.40674578  0.28483973    -0.80100
C517        C  0.99655297  0.40687571  0.24180816     1.00400
O518        O  0.97811135  0.43439226  0.22625373    -0.80200
O519        O  0.94004532  0.50255627  0.22803039    -0.82800
C520        C  0.90725207  0.49661356  0.24261341     1.04900
O521        O  0.90101106  0.48393419  0.28537548    -0.75600
O522        O  0.91210158  0.44692058  0.37298730    -0.75700
C523        C  0.91830813  0.41289984  0.36275229     1.04900
O524        O  0.48536537  0.45192106  0.41582807    -0.83100
O525        O  0.54251483  0.46281634  0.34835246    -0.80100
C526        C  0.55855499  0.47187576  0.30837734     1.00400
O527        O  0.54154231  0.47030368  0.26754226    -0.80200
O528        O  0.00200705  0.03359455  0.27896230    -0.82800
C529        C  0.97935318  0.05580386  0.29844894     1.04900
O530        O  0.94864121  0.04467092  0.31639831    -0.75600
O531        O  0.96321325  0.00747925  0.40184901    -0.75700
C532        C  0.97950883  0.48480994  0.42987609     1.04800
Cr533      Cr  0.99524910  0.43382397  0.34650074     1.93700
Cr534      Cr  0.98878742  0.48397420  0.25482747     1.93200
Cr535      Cr  0.93415561  0.49376874  0.34228783     1.39100
O536        O  0.97228169  0.47041364  0.31445896    -1.20800
O537        O  0.90050885  0.30159724  0.84065158    -0.83100
O538        O  0.90385895  0.24108729  0.77764167    -0.80100
C539        C  0.90493299  0.25434800  0.73406033     1.00400
O540        O  0.93280982  0.27229321  0.71876232    -0.80200
O541        O  0.00072647  0.30991789  0.72222536    -0.82800
C542        C  0.99402772  0.34262393  0.73641896     1.04900
O543        O  0.98126538  0.34884884  0.77916299    -0.75600
O544        O  0.94541160  0.33772145  0.86795972    -0.75700
C545        C  0.91129529  0.33237320  0.85818127     1.04900
O546        O  0.94967978  0.26364205  0.90924215    -0.83100
O547        O  0.95914400  0.20700805  0.84093756    -0.80100
C548        C  0.96856739  0.19110321  0.80104724     1.00400
O549        O  0.96775595  0.20848073  0.76040714    -0.80200
O550        O  0.53129719  0.24774024  0.77387367    -0.82800
C551        C  0.55333348  0.27072343  0.79286314     1.04900
O552        O  0.54204658  0.30156035  0.80986638    -0.75600
O553        O  0.50529241  0.28599005  0.89564239    -0.75700
C554        C  0.98262510  0.26934946  0.92339917     1.04800
Cr555      Cr  0.93104619  0.25512383  0.83976810     1.93700
Cr556      Cr  0.98191610  0.26124008  0.74854319     1.93200
Cr557      Cr  0.99147924  0.31557889  0.83613093     1.39100
O558        O  0.96795393  0.27772726  0.80806103    -1.20800
O559        O  0.84592349  0.44980751  0.85082930    -0.83100
O560        O  0.84195903  0.51059784  0.78886641    -0.80100
C561        C  0.84223403  0.49580960  0.74633714     1.00400
O562        O  0.81499059  0.47678071  0.73139979    -0.80200
O563        O  0.74684288  0.43841083  0.73434780    -0.82800
C564        C  0.75195782  0.40588517  0.75059203     1.04900
O565        O  0.76395378  0.40046363  0.79381507    -0.75600
O566        O  0.80175128  0.41312874  0.87959570    -0.75700
C567        C  0.83545400  0.41845305  0.86701841     1.04900
O568        O  0.79740249  0.98712012  0.92092212    -0.83100
O569        O  0.78588522  0.04348077  0.85139413    -0.80100
C570        C  0.77655976  0.05869821  0.81084020     1.00400
O571        O  0.77822277  0.04083730  0.77062435    -0.80200
O572        O  0.71523487  0.50124218  0.78288330    -0.82800
C573        C  0.69304851  0.47928251  0.80381049     1.04900
O574        O  0.70408802  0.44929850  0.82387433    -0.75600
O575        O  0.74169994  0.46521516  0.90848958    -0.75700
C576        C  0.76462870  0.48157697  0.93584367     1.04800
Cr577      Cr  0.81498818  0.49589745  0.85089439     1.93700
Cr578      Cr  0.76507340  0.48772727  0.75955034     1.93200
Cr579      Cr  0.75487425  0.43502042  0.84942592     1.39100
O580        O  0.77831941  0.47247289  0.81988346    -1.20800
O581        O  0.54977486  0.15313418  0.14596611    -0.83100
O582        O  0.48910279  0.15717851  0.20798987    -0.80100
C583        C  0.50392011  0.15694424  0.25050185     1.00400
O584        O  0.52296332  0.18420553  0.26536411    -0.80200
O585        O  0.56135550  0.25233221  0.26215372    -0.82800
C586        C  0.59384089  0.24708040  0.24592553     1.04900
O587        O  0.59920954  0.23502862  0.20272453    -0.75600
O588        O  0.58639884  0.19726254  0.11696679    -0.75700
C589        C  0.58109928  0.16357967  0.12971090     1.04900
O590        O  0.01233733  0.20162446  0.07580442    -0.83100
O591        O  0.95609145  0.21317270  0.14546814    -0.80100
C592        C  0.94095092  0.22250716  0.18606089     1.00400
O593        O  0.95890304  0.22094149  0.22620910    -0.80200
O594        O  0.49853033  0.28394202  0.21360686    -0.82800
C595        C  0.52051288  0.30610208  0.19267466     1.04900
O596        O  0.55048241  0.29501280  0.17267632    -0.75600
O597        O  0.53438513  0.25737302  0.08813913    -0.75700
C598        C  0.51794897  0.23444431  0.06085794     1.04800
Cr599      Cr  0.50371551  0.18409396  0.14588819     1.93700
Cr600      Cr  0.51202407  0.23411375  0.23709141     1.93200
Cr601      Cr  0.56463018  0.24417518  0.14714928     1.39100
O602        O  0.52718925  0.22078771  0.17677648    -1.20800
O603        O  0.69786822  0.09850982  0.15656132    -0.83100
O604        O  0.75845321  0.09503101  0.21945408    -0.80100
C605        C  0.74530326  0.09386274  0.26308084     1.00400
O606        O  0.72740946  0.06593144  0.27835156    -0.80200
O607        O  0.68965140  0.99806569  0.27466017    -0.82800
C608        C  0.65696035  0.00488788  0.26053162     1.04900
O609        O  0.65072133  0.01773855  0.21782971    -0.75600
O610        O  0.66179072  0.05364380  0.12904370    -0.75700
C611        C  0.66713125  0.08775353  0.13890958     1.04900
O612        O  0.73569398  0.04944158  0.08776381    -0.83100
O613        O  0.79242221  0.03987859  0.15591042    -0.80100
C614        C  0.80838629  0.03034715  0.19572139     1.00400
O615        O  0.79106495  0.03096278  0.23639992    -0.80200
O616        O  0.75172891  0.46751651  0.22281161    -0.82800
C617        C  0.72869147  0.44552636  0.20384503     1.04900
O618        O  0.69784576  0.45689057  0.18698406    -0.75600
O619        O  0.71341235  0.49380637  0.10126604    -0.75700
C620        C  0.72994786  0.01651379  0.07350526     1.04800
Cr621      Cr  0.74432174  0.06795983  0.15727220     1.93700
Cr622      Cr  0.73832169  0.01684999  0.24832974     1.93200
Cr623      Cr  0.68388502  0.00751779  0.16081014     1.39100
O624        O  0.72177243  0.03097030  0.18889454    -1.20800
C625        C  0.61170507  0.13688713  0.12737835    -0.11000
C626        C  0.63728358  0.11464148  0.13054571    -0.12600
C627        C  0.74242430  0.00469854  0.02489415    -0.11000
C628        C  0.75313479  0.49403714  0.98460320    -0.12600
C629        C  0.99456101  0.25673247  0.97191219    -0.11000
C630        C  0.50537721  0.24596910  0.01215183    -0.12600
C631        C  0.88442246  0.36226180  0.86645909    -0.11000
C632        C  0.86215773  0.38784311  0.86949254    -0.12600
C633        C  0.98804558  0.09465386  0.29556532    -0.11000
C634        C  0.49700914  0.12517349  0.28137141    -0.12600
C635        C  0.51206964  0.34490076  0.19616326    -0.11000
C636        C  0.00354357  0.37526919  0.21097055    -0.12600
C637        C  0.59650940  0.48381927  0.30691808    -0.11000
C638        C  0.62600601  0.99464028  0.29131115    -0.12600
C639        C  0.87617490  0.50754364  0.21231860    -0.11000
C640        C  0.84656525  0.01864945  0.19714051    -0.12600
C641        C  0.86543528  0.36077858  0.36924242    -0.11000
C642        C  0.88906090  0.38513320  0.36897554    -0.12600
C643        C  0.74600029  0.37586271  0.21839234    -0.11000
C644        C  0.73695381  0.40666816  0.20582299    -0.12600
C645        C  0.75340189  0.12453351  0.29515962    -0.11000
C646        C  0.76464422  0.15410024  0.30973332    -0.12600
C647        C  0.90289909  0.23450465  0.18932618    -0.11000
C648        C  0.87368211  0.24464121  0.20694139    -0.12600
C649        C  0.62556473  0.25722683  0.27542646    -0.11000
C650        C  0.65556315  0.26598895  0.29174248    -0.12600
C651        C  0.74448592  0.24363747  0.51831423    -0.11000
C652        C  0.75571471  0.25477247  0.47859590    -0.12600
C653        C  0.59215678  0.26242267  0.79076186    -0.11000
C654        C  0.62294592  0.25342979  0.77814365    -0.12600
C655        C  0.87424913  0.24628290  0.70202885    -0.11000
C656        C  0.84471072  0.23502661  0.68743818    -0.12600
C657        C  0.75422903  0.12596885  0.79020717    -0.11000
C658        C  0.76444569  0.09673262  0.80772359    -0.10200
C659        C  0.74172684  0.37416828  0.72109319    -0.11000
C660        C  0.73291494  0.34414206  0.70486513    -0.12600
C661        C  0.50238941  0.00769041  0.51829706    -0.11000
C662        C  0.99166357  0.49677859  0.47830632    -0.12600
C663        C  0.61395566  0.11052947  0.62756763    -0.11000
C664        C  0.63832311  0.13412770  0.62740928    -0.12600
C665        C  0.65427134  0.48776355  0.80026351    -0.11000
C666        C  0.62385908  0.99628913  0.78551120    -0.12600
C667        C  0.90448346  0.01160766  0.70119739    -0.11000
C668        C  0.87402125  0.50272837  0.71551977    -0.12600
C669        C  0.98038026  0.15295020  0.79948712    -0.11000
C670        C  0.49160387  0.12342378  0.78426495    -0.12600
C671        C  0.00430840  0.37358858  0.70562929    -0.11000
C672        C  0.51514826  0.40304364  0.68985225    -0.12600
O673        O  0.59634122  0.54997780  0.65020189    -0.83100
O674        O  0.59230343  0.48901318  0.71169649    -0.80100
C675        C  0.59221645  0.50316982  0.75466744     1.00400
O676        O  0.56469717  0.52159856  0.77020767    -0.80200
O677        O  0.49650755  0.55957355  0.76841610    -0.82800
C678        C  0.50247606  0.59238343  0.75387851     1.04900
O679        O  0.51515270  0.59865391  0.71112345    -0.75600
O680        O  0.55215401  0.58756684  0.62352096    -0.75700
C681        C  0.58615677  0.58130125  0.63372745     1.04900
O682        O  0.54719833  0.01414985  0.58073533    -0.83100
O683        O  0.53625295  0.95700206  0.64826337    -0.80100
C684        C  0.52720741  0.94098974  0.68827502     1.00400
O685        O  0.52885477  0.95804004  0.72906507    -0.80200
O686        O  0.96558776  0.49753640  0.71747426    -0.82800
C687        C  0.94336227  0.52024202  0.69809484     1.04900
O688        O  0.95448626  0.55096223  0.68009783    -0.75600
O689        O  0.99166374  0.53643997  0.59456005    -0.75700
C690        C  0.51428210  0.52005015  0.56663161     1.04800
Cr691      Cr  0.56521276  0.50432887  0.65002122     1.93700
Cr692      Cr  0.51512938  0.51085033  0.74165839     1.93200
Cr693      Cr  0.50532211  0.56550792  0.65417628     1.39100
O694        O  0.52866166  0.52735029  0.68201881    -1.20800
O695        O  0.66345009  0.69491097  0.61994661    -0.83100
O696        O  0.65004372  0.73110151  0.70675080    -0.80100
C697        C  0.65504225  0.74365879  0.74968978     1.00400
O698        O  0.68726599  0.75047544  0.76579098    -0.80200
O699        O  0.72714271  0.68385300  0.77106141    -0.82800
C700        C  0.74615464  0.65634501  0.75700496     1.04900
O701        O  0.75997159  0.65541232  0.71372218    -0.75600
O702        O  0.69862100  0.65093682  0.65223343    -0.75700
C703        C  0.66818596  0.66121224  0.63319195     1.04900
O704        O  0.71515739  0.75566332  0.59378881    -0.83100
O705        O  0.69643438  0.79312881  0.67859922    -0.80100
C706        C  0.72618422  0.80503675  0.69823709     1.00400
O707        O  0.74961279  0.78305206  0.71638064    -0.80200
O708        O  0.79030681  0.72067407  0.72845184    -0.82800
C709        C  0.80723968  0.72164946  0.68734055     1.04900
O710        O  0.79167283  0.71068146  0.64805427    -0.75600
O711        O  0.73506990  0.69908116  0.58095625    -0.75700
C712        C  0.73102126  0.73226720  0.56645877     1.04800
Cr713      Cr  0.68415086  0.74188062  0.65166576     1.93700
Cr714      Cr  0.73709070  0.73321903  0.74088937     1.93200
Cr715      Cr  0.74458321  0.68166681  0.65092541     1.39100
O716        O  0.72157526  0.71883837  0.68137558    -1.20800
O717        O  0.80466507  0.83570080  0.37668149    -0.83100
O718        O  0.76851815  0.84888146  0.28976660    -0.80100
C719        C  0.75588961  0.84379364  0.24688510     1.00400
O720        O  0.74911852  0.81151217  0.23091815    -0.80200
O721        O  0.81578242  0.77167246  0.22592534    -0.82800
C722        C  0.84328681  0.75269423  0.24007951     1.04900
O723        O  0.84420213  0.73892454  0.28340922    -0.75600
O724        O  0.84863028  0.80036149  0.34475748    -0.75700
C725        C  0.83836439  0.83088554  0.36356866     1.04900
O726        O  0.74390364  0.78405123  0.40303033    -0.83100
O727        O  0.70652388  0.80251795  0.31805582    -0.80100
C728        C  0.69463902  0.77271228  0.29851780     1.00400
O729        O  0.71662661  0.74921828  0.28055088    -0.80200
O730        O  0.77900814  0.70850899  0.26866281    -0.82800
C731        C  0.77798516  0.69161748  0.30981529     1.04900
O732        O  0.78888139  0.70726362  0.34908418    -0.75600
O733        O  0.80040375  0.76400604  0.41603568    -0.75700
C734        C  0.76723302  0.76817941  0.43046082     1.04800
Cr735      Cr  0.75772736  0.81489773  0.34500893     1.93700
Cr736      Cr  0.76643082  0.76172890  0.25604593     1.93200
Cr737      Cr  0.81788931  0.75438795  0.34613042     1.39100
O738        O  0.78076732  0.77737077  0.31552235    -1.20800
O739        O  0.94961312  0.90270551  0.34618193    -0.83100
O740        O  0.01062393  0.90675285  0.28478142    -0.80100
C741        C  0.99655564  0.90687082  0.24175433     1.00400
O742        O  0.97810526  0.93438116  0.22619709    -0.80200
O743        O  0.94003799  0.00254940  0.22796141    -0.82800
C744        C  0.90724631  0.99662012  0.24256060     1.04900
O745        O  0.90101100  0.98395148  0.28532969    -0.75600
O746        O  0.91211641  0.94693071  0.37293359    -0.75700
C747        C  0.91832870  0.91290890  0.36270772     1.04900
O748        O  0.48538846  0.95187941  0.41584655    -0.83100
O749        O  0.54253747  0.96277025  0.34836917    -0.80100
C750        C  0.55857736  0.97183874  0.30839738     1.00400
O751        O  0.54156672  0.97027177  0.26755978    -0.80200
O752        O  0.00200692  0.53359362  0.27905721    -0.82800
C753        C  0.97933898  0.55580043  0.29851950     1.04900
O754        O  0.94862493  0.54466106  0.31645483    -0.75600
O755        O  0.96319597  0.50746885  0.40190675    -0.75700
C756        C  0.97951823  0.98481632  0.42982076     1.04800
Cr757      Cr  0.99525793  0.93383542  0.34643842     1.93700
Cr758      Cr  0.98878322  0.98397059  0.25475347     1.93200
Cr759      Cr  0.93416678  0.99378058  0.34223236     1.39100
O760        O  0.97228573  0.97042076  0.31439414    -1.20800
O761        O  0.90048882  0.80157422  0.84064184    -0.83100
O762        O  0.90386364  0.74104403  0.77766651    -0.80100
C763        C  0.90494653  0.75429921  0.73408331     1.00400
O764        O  0.93282569  0.77224490  0.71879335    -0.80200
O765        O  0.00072926  0.80988923  0.72227955    -0.82800
C766        C  0.99401571  0.84259518  0.73646205     1.04900
O767        O  0.98124935  0.84882335  0.77920287    -0.75600
O768        O  0.94537973  0.83769789  0.86798414    -0.75700
C769        C  0.91126853  0.83235190  0.85817427     1.04900
O770        O  0.94963957  0.76363970  0.90927836    -0.83100
O771        O  0.95913113  0.70698679  0.84100321    -0.80100
C772        C  0.96857164  0.69107854  0.80112157     1.00400
O773        O  0.96777637  0.70845113  0.76047753    -0.80200
O774        O  0.53127354  0.74771250  0.77384180    -0.82800
C775        C  0.55332492  0.77067869  0.79283647     1.04900
O776        O  0.54206073  0.80152348  0.80984113    -0.75600
O777        O  0.50532563  0.78598140  0.89563620    -0.75700
C778        C  0.98258392  0.76933987  0.92344344     1.04800
Cr779      Cr  0.93102942  0.75510139  0.83979943     1.93700
Cr780      Cr  0.98192742  0.76120960  0.74860211     1.93200
Cr781      Cr  0.99145791  0.81556143  0.83617886     1.39100
O782        O  0.96794555  0.77770281  0.80810661    -1.20800
O783        O  0.84590098  0.94979750  0.85080231    -0.83100
O784        O  0.84192359  0.01058917  0.78884361    -0.80100
C785        C  0.84219762  0.99579713  0.74631718     1.00400
O786        O  0.81495432  0.97676569  0.73138507    -0.80200
O787        O  0.74680547  0.93839662  0.73434689    -0.82800
C788        C  0.75191493  0.90587110  0.75059330     1.04900
O789        O  0.76391551  0.90044876  0.79381366    -0.75600
O790        O  0.80173467  0.91311411  0.87957528    -0.75700
C791        C  0.83543434  0.91844080  0.86698792     1.04900
O792        O  0.79741306  0.48713021  0.92093101    -0.83100
O793        O  0.78591202  0.54349225  0.85140563    -0.80100
C794        C  0.77658912  0.55870945  0.81085093     1.00400
O795        O  0.77825920  0.54085040  0.77063462    -0.80200
O796        O  0.71520590  0.00122473  0.78288964    -0.82800
C797        C  0.69302530  0.97927158  0.80383964     1.04900
O798        O  0.70406484  0.94928793  0.82390178    -0.75600
O799        O  0.74169102  0.96519634  0.90849915    -0.75700
C800        C  0.76462265  0.98155864  0.93584728     1.04800
Cr801      Cr  0.81496367  0.99588680  0.85087782     1.93700
Cr802      Cr  0.76503960  0.98771198  0.75954517     1.93200
Cr803      Cr  0.75485278  0.93500622  0.84942799     1.39100
O804        O  0.77829206  0.97245949  0.81987716    -1.20800
O805        O  0.54979651  0.65313553  0.14598927    -0.83100
O806        O  0.48912828  0.65717846  0.20802159    -0.80100
C807        C  0.50393873  0.65695011  0.25053813     1.00400
O808        O  0.52298473  0.68421068  0.26539770    -0.80200
O809        O  0.56136841  0.75235106  0.26217521    -0.82800
C810        C  0.59385620  0.74711269  0.24594565     1.04900
O811        O  0.59922609  0.73504673  0.20275170    -0.75600
O812        O  0.58641937  0.69726888  0.11699845    -0.75700
C813        C  0.58112097  0.66358600  0.12973864     1.04900
O814        O  0.01233955  0.70158827  0.07581028    -0.83100
O815        O  0.95608159  0.71313783  0.14545018    -0.80100
C816        C  0.94093744  0.72248366  0.18603542     1.00400
O817        O  0.95888567  0.72093731  0.22618814    -0.80200
O818        O  0.49853492  0.78393435  0.21361858    -0.82800
C819        C  0.52051290  0.80609446  0.19267888     1.04900
O820        O  0.55048607  0.79501056  0.17268784    -0.75600
O821        O  0.53440381  0.75736521  0.08815351    -0.75700
C822        C  0.51797082  0.73443457  0.06087177     1.04800
Cr823      Cr  0.50373402  0.68409117  0.14591556     1.93700
Cr824      Cr  0.51203914  0.73411457  0.23711611     1.93200
Cr825      Cr  0.56464456  0.74417736  0.14717207     1.39100
O826        O  0.52720644  0.72078645  0.17680173    -1.20800
O827        O  0.69790133  0.59852747  0.15657804    -0.83100
O828        O  0.75848196  0.59502808  0.21947984    -0.80100
C829        C  0.74532706  0.59385941  0.26310372     1.00400
O830        O  0.72742268  0.56593161  0.27836465    -0.80200
O831        O  0.68964058  0.49807713  0.27465260    -0.82800
C832        C  0.65695276  0.50490358  0.26051366     1.04900
O833        O  0.65072354  0.51775738  0.21781099    -0.75600
O834        O  0.66181863  0.55367214  0.12904076    -0.75700
C835        C  0.66716354  0.58777787  0.13892095     1.04900
O836        O  0.73572363  0.54946198  0.08777339    -0.83100
O837        O  0.79244306  0.53987654  0.15593324    -0.80100
C838        C  0.80839897  0.53033622  0.19574659     1.00400
O839        O  0.79107063  0.53094396  0.23642025    -0.80200
O840        O  0.75174259  0.96752236  0.22280759    -0.82800
C841        C  0.72870845  0.94552382  0.20385189     1.04900
O842        O  0.69785359  0.95687676  0.18700633    -0.75600
O843        O  0.71340056  0.99378173  0.10127575    -0.75700
C844        C  0.72996415  0.51653941  0.07350222     1.04800
Cr845      Cr  0.74434837  0.56796749  0.15728989     1.93700
Cr846      Cr  0.73832123  0.51684793  0.24833608     1.93200
Cr847      Cr  0.68389520  0.50753868  0.16079877     1.39100
O848        O  0.72178527  0.53097853  0.18889843    -1.20800
C849        C  0.61173080  0.63690124  0.12740638    -0.11000
C850        C  0.63731683  0.61466569  0.13056847    -0.12600
C851        C  0.74243091  0.50472920  0.02488485    -0.11000
C852        C  0.75313433  0.99401109  0.98461300    -0.12600
C853        C  0.99451281  0.75671426  0.97195149    -0.11000
C854        C  0.50541335  0.74595474  0.01215479    -0.12600
C855        C  0.88439590  0.86224407  0.86642505    -0.11000
C856        C  0.86213676  0.88783023  0.86945146    -0.12600
C857        C  0.98801490  0.59465276  0.29561369    -0.11000
C858        C  0.49700968  0.62518867  0.28141568    -0.12600
C859        C  0.51206429  0.84488911  0.19615610    -0.11000
C860        C  0.00354936  0.87525776  0.21092756    -0.12600
C861        C  0.59652878  0.98378980  0.30694544    -0.11000
C862        C  0.62599056  0.49466108  0.29128424    -0.12600
C863        C  0.87616456  0.00755129  0.21227403    -0.11000
C864        C  0.84657790  0.51864004  0.19717546    -0.12600
C865        C  0.86548105  0.86077198  0.36922532    -0.11000
C866        C  0.88909367  0.88513669  0.36895083    -0.12600
C867        C  0.74604613  0.87586664  0.21838891    -0.11000
C868        C  0.73698695  0.90666922  0.20582448    -0.12600
C869        C  0.75342729  0.62452785  0.29518811    -0.11000
C870        C  0.76466477  0.65409647  0.30976395    -0.12600
C871        C  0.90288371  0.73447135  0.18929002    -0.11000
C872        C  0.87367066  0.74460729  0.20691488    -0.12600
C873        C  0.62557988  0.75728690  0.27543610    -0.11000
C874        C  0.65557837  0.76605618  0.29175046    -0.12600
C875        C  0.74450845  0.74367996  0.51833417    -0.11000
C876        C  0.75574645  0.75481766  0.47861927    -0.12600
C877        C  0.59214118  0.76235102  0.79074276    -0.11000
C878        C  0.62293060  0.75335495  0.77813464    -0.12600
C879        C  0.87426544  0.74623545  0.70204562    -0.11000
C880        C  0.84472207  0.73499298  0.68745243    -0.12600
C881        C  0.75424163  0.62597067  0.79021006    -0.11000
C882        C  0.76446688  0.59674036  0.80773374    -0.10200
C883        C  0.74167504  0.87415547  0.72109880    -0.11000
C884        C  0.73286267  0.84412917  0.70487277    -0.12600
C885        C  0.50236097  0.50771473  0.51827293    -0.11000
C886        C  0.99165978  0.99677445  0.47826283    -0.12600
C887        C  0.61393484  0.61052642  0.62755845    -0.11000
C888        C  0.63831281  0.63411598  0.62739782    -0.12600
C889        C  0.65425170  0.98775907  0.80031979    -0.11000
C890        C  0.62387473  0.49628767  0.78545490    -0.12600
C891        C  0.90451737  0.51161912  0.70120500    -0.11000
C892        C  0.87398487  0.00271427  0.71549980    -0.12600
C893        C  0.98038473  0.65292592  0.79956875    -0.11000
C894        C  0.49156905  0.62342987  0.78424049    -0.12600
C895        C  0.00428074  0.87355869  0.70566222    -0.11000
C896        C  0.51518084  0.90304118  0.68985453    -0.12600
loop_ 
_geom_bond_atom_site_label_1 
_geom_bond_atom_site_label_2 
_geom_bond_distance 
_geom_bond_site_symmetry_2 
_ccdc_geom_bond_type 
O1          Cr19   1.988       .  S
O1            C9   1.264       .  A
O2          Cr19   2.002   1_565  S
O2            C3   1.264   1_565  A
C3            O4   1.262       .  A
C3          C218   1.430   1_545  S
O4          Cr20   1.981       .  S
O5          Cr20   2.009   1_655  S
O5            C6   1.261   1_655  A
C6            O7   1.257       .  A
C6          C222   1.438   1_455  S
O7          Cr21   1.976       .  S
O8          Cr21   2.036       .  S
O8            C9   1.274       .  A
C9          C215   1.460       .  S
O10        Cr243   2.006       .  S
O10         C242   1.260       .  A
O11        Cr243   1.997       .  S
O11          C12   1.262       .  A
C12          O13   1.260       .  A
C12         C224   1.432       .  S
O13        Cr244   1.991       .  S
O14        Cr468   1.960   1_565  S
O14          C15   1.255   1_565  A
C15          O16   1.270       .  A
C15         C219   1.434       .  S
O16        Cr469   2.025       .  S
O17        Cr469   1.980       .  S
O17         C466   1.254       .  A
C18         O234   1.260       .  A
C18         O465   1.254   1_455  A
C18         C213   1.442       .  S
Cr19        O234   2.006       .  S
Cr19        O235   1.997   1_545  S
Cr19         O22   1.775       .  S
Cr20        O237   1.991   1_545  S
Cr20        O462   1.960   1_445  S
Cr20         O22   1.777       .  S
Cr21        O464   2.025   1_455  S
Cr21        O465   1.980   1_455  S
Cr21         O22   1.773       .  S
O23         Cr41   2.036       .  S
O23          C31   1.274       .  A
O24         Cr41   1.961       .  S
O24          C25   1.255       .  A
C25          O26   1.263       .  A
C25         C206   1.428       .  S
O26         Cr42   2.010       .  S
O27         Cr42   1.983       .  S
O27          C28   1.260       .  A
C28          O29   1.266       .  A
C28         C209   1.439       .  S
O29         Cr43   2.012       .  S
O30         Cr43   1.990       .  S
O30          C31   1.264       .  A
C31         C216   1.460       .  S
O32         Cr41   1.977       .  S
O32          C40   1.255       .  A
O33         Cr41   2.031       .  S
O33          C34   1.269       .  A
C34          O35   1.254       .  A
C34         C212   1.438       .  S
O35         Cr42   1.960       .  S
O36         Cr42   1.994       .  S
O36          C37   1.262       .  A
C37          O38   1.261       .  A
C37         C208   1.432       .  S
O38         Cr43   1.992       .  S
O39         Cr43   2.013       .  S
O39          C40   1.263       .  A
C40         C203   1.441       .  S
Cr41         O44   1.771       .  S
Cr42         O44   1.775       .  S
Cr43         O44   1.773       .  S
O45         Cr63   2.036       .  S
O45          C53   1.274       .  A
O46         Cr63   1.961       .  S
O46          C47   1.255       .  A
C47          O48   1.263       .  A
C47         C195   1.428       .  S
O48         Cr64   2.010       .  S
O49         Cr64   1.983       .  S
O49          C50   1.260       .  A
C50          O51   1.266       .  A
C50         C200   1.440       .  S
O51         Cr65   2.013       .  S
O52         Cr65   1.990       .  S
O52          C53   1.264       .  A
C53         C193   1.460       .  S
O54         Cr63   1.977       .  S
O54          C62   1.255       .  A
O55         Cr63   2.031       .  S
O55          C56   1.269       .  A
C56          O57   1.254       .  A
C56         C202   1.437       .  S
O57         Cr64   1.960       .  S
O58         Cr64   1.994       .  S
O58          C59   1.262       .  A
C59          O60   1.261       .  A
C59         C198   1.432       .  S
O60         Cr65   1.992       .  S
O61         Cr65   2.013       .  S
O61          C62   1.263       .  A
C62         C204   1.441       .  S
Cr63         O66   1.771       .  S
Cr64         O66   1.775       .  S
Cr65         O66   1.773       .  S
O67         Cr85   1.988       .  S
O67          C75   1.264       .  A
O68         Cr85   2.002       .  S
O68          C69   1.264       .  A
C69          O70   1.262       .  A
C69         C188   1.430       .  S
O70         Cr86   1.981       .  S
O71         Cr86   2.010       .  S
O71          C72   1.261       .  A
C72          O73   1.257       .  A
C72         C191   1.438       .  S
O73         Cr87   1.975       .  S
O74         Cr87   2.036       .  S
O74          C75   1.274       .  A
C75         C194   1.460       .  S
O76        Cr533   2.007       .  S
O76         C532   1.261       .  A
O77        Cr533   1.997   1_455  S
O77          C78   1.262       .  A
C78          O79   1.260       .  A
C78         C189   1.432       .  S
O79        Cr534   1.991   1_455  S
O80        Cr310   1.960   1_545  S
O80          C81   1.255       .  A
C81          O82   1.270       .  A
C81         C185   1.434       .  S
O82        Cr311   2.024   1_545  S
O83        Cr311   1.979   1_545  S
O83         C308   1.254   1_545  A
C84         O524   1.261       .  A
C84         O307   1.254       .  A
C84         C214   1.442       .  S
Cr85        O524   2.007       .  S
Cr85        O525   1.997       .  S
Cr85         O88   1.775       .  S
Cr86        O527   1.991       .  S
Cr86        O304   1.960       .  S
Cr86         O88   1.777       .  S
Cr87        O306   2.024       .  S
Cr87        O307   1.979       .  S
Cr87         O88   1.773       .  S
O89        Cr107   1.999       .  S
O89          C97   1.265       .  A
O90        Cr107   2.004       .  S
O90          C91   1.266       .  A
C91          O92   1.261       .  A
C91         C207   1.432       .  S
O92        Cr108   1.980       .  S
O93        Cr108   2.005       .  S
O93          C94   1.260       .  A
C94          O95   1.258       .  A
C94         C223   1.435       .  S
O95        Cr109   1.977       .  S
O96        Cr109   2.027       .  S
O96          C97   1.270       .  A
C97         C183   1.461       .  S
O98        Cr107   2.011       .  S
O98         C106   1.262       .  A
O99        Cr107   2.003       .  S
O99         C100   1.263       .  A
C100        O101   1.259       .  A
C100        C221   1.436       .  S
O101       Cr108   1.990       .  S
O102       Cr556   1.962   1_455  S
O102        C103   1.256       .  A
C103        O104   1.266       .  A
C103        C205   1.429       .  S
O104       Cr557   2.014   1_455  S
O105       Cr557   1.984   1_455  S
O105        C554   1.256   1_455  A
C106        O553   1.256       .  A
C106        C181   1.447       .  S
Cr107       O110   1.774       .  S
Cr108       O550   1.962       .  S
Cr108       O110   1.780       .  S
Cr109       O552   2.014       .  S
Cr109       O553   1.984       .  S
Cr109       O110   1.774       .  S
O111       Cr129   1.995       .  S
O111        C119   1.265       .  A
O112       Cr129   2.000       .  S
O112        C113   1.263       .  A
C113        O114   1.262       .  A
C113        C220   1.433       .  S
O114       Cr130   1.987       .  S
O115       Cr130   2.011       .  S
O115        C116   1.261       .  A
C116        O117   1.256       .  A
C116        C211   1.439       .  S
O117       Cr131   1.973       .  S
O118       Cr131   2.030       .  S
O118        C119   1.273       .  A
C119        C184   1.461       .  S
O120       Cr353   2.011       .  S
O120        C352   1.261       .  A
O121       Cr353   2.004   1_545  S
O121        C122   1.265       .  A
C122        O123   1.261       .  A
C122        C210   1.437       .  S
O123       Cr354   1.992   1_545  S
O124       Cr130   1.959       .  S
O124        C125   1.255       .  A
C125        O126   1.268       .  A
C125        C217   1.430       .  S
O126       Cr131   2.018       .  S
O127       Cr131   1.983       .  S
O127        C128   1.254       .  A
C128        O344   1.261       .  A
C128        C180   1.447       .  S
Cr129       O344   2.011       .  S
Cr129       O345   2.004       .  S
Cr129       O132   1.776       .  S
Cr130       O347   1.992       .  S
Cr130       O132   1.778       .  S
Cr131       O132   1.775       .  S
O133       Cr151   1.995       .  S
O133        C141   1.265       .  A
O134       Cr151   1.999   1_655  S
O134        C135   1.263   1_655  A
C135        O136   1.263       .  A
C135        C186   1.433   1_455  S
O136       Cr152   1.987       .  S
O137       Cr152   2.010       .  S
O137        C138   1.261       .  A
C138        O139   1.256       .  A
C138        C201   1.439       .  S
O139       Cr153   1.974       .  S
O140       Cr153   2.029       .  S
O140        C141   1.272       .  A
C141        C177   1.461       .  S
O142       Cr599   2.011       .  S
O142        C598   1.261       .  A
O143       Cr599   2.005       .  S
O143        C144   1.265       .  A
C144        O145   1.261       .  A
C144        C199   1.437       .  S
O145       Cr600   1.991       .  S
O146       Cr152   1.959   1_655  S
O146        C147   1.255   1_655  A
C147        O148   1.268       .  A
C147        C187   1.430       .  S
O148       Cr153   2.018       .  S
O149       Cr153   1.983       .  S
O149        C150   1.254       .  A
C150        O590   1.261       .  A
C150        C182   1.447       .  S
Cr151       O590   2.011       .  S
Cr151       O591   2.005   1_455  S
Cr151       O154   1.776       .  S
Cr152       O593   1.991   1_455  S
Cr152       O154   1.778       .  S
Cr153       O154   1.776       .  S
O155       Cr173   1.999       .  S
O155        C163   1.265       .  A
O156       Cr173   2.004       .  S
O156        C157   1.266       .  A
C157        O158   1.261       .  A
C157        C197   1.432       .  S
O158       Cr174   1.981       .  S
O159       Cr174   2.005   1_565  S
O159        C160   1.260   1_565  A
C160        O161   1.258       .  A
C160        C190   1.434   1_545  S
O161       Cr175   1.976       .  S
O162       Cr175   2.026       .  S
O162        C163   1.270       .  A
C163        C178   1.461       .  S
O164       Cr173   2.011       .  S
O164        C172   1.263       .  A
O165       Cr173   2.002       .  S
O165        C166   1.263       .  A
C166        O167   1.259       .  A
C166        C192   1.436       .  S
O167       Cr174   1.990       .  S
O168       Cr398   1.963       .  S
O168        C169   1.256       .  A
C169        O170   1.266       .  A
C169        C196   1.429       .  S
O170       Cr399   2.014       .  S
O171       Cr399   1.983       .  S
O171        C396   1.256       .  A
C172        O395   1.256   1_545  A
C172        C179   1.447       .  S
Cr173       O176   1.774       .  S
Cr174       O392   1.963   1_545  S
Cr174       O176   1.780       .  S
Cr175       O394   2.014   1_545  S
Cr175       O395   1.983   1_545  S
Cr175       O176   1.774       .  S
C177        C178   1.221       .  T
C179        C404   1.213   1_544  T
C180        C403   1.213   1_556  T
C181        C630   1.213   1_556  T
C182        C629   1.213   1_454  T
C183        C184   1.221       .  T
C185        C634   1.205       .  T
C186        C633   1.205       .  T
C187        C636   1.203       .  T
C188        C635   1.203       .  T
C189        C414   1.205       .  T
C190        C413   1.205       .  T
C191        C416   1.208       .  T
C192        C415   1.208       .  T
C193        C194   1.221       .  T
C195        C196   1.202       .  T
C197        C198   1.204       .  T
C199        C200   1.208       .  T
C201        C202   1.208       .  T
C203        C204   1.210       .  T
C205        C206   1.202       .  T
C207        C208   1.204       .  T
C209        C210   1.208       .  T
C211        C212   1.208       .  T
C213        C886   1.210   1_445  T
C214        C885   1.210       .  T
C215        C216   1.221       .  T
C217        C442   1.203       .  T
C218        C441   1.203       .  T
C219        C444   1.205       .  T
C220        C443   1.205       .  T
C221        C670   1.207       .  T
C222        C669   1.208       .  T
C223        C672   1.205       .  T
C224        C671   1.205       .  T
O225       Cr243   1.988       .  S
O225        C233   1.263       .  A
O226       Cr243   2.002       .  S
O226        C227   1.264       .  A
C227        O228   1.262       .  A
C227        C442   1.430       .  S
O228       Cr244   1.981       .  S
O229       Cr244   2.009   1_655  S
O229        C230   1.261   1_655  A
C230        O231   1.257       .  A
C230        C446   1.438   1_455  S
O231       Cr245   1.976       .  S
O232       Cr245   2.035       .  S
O232        C233   1.274       .  A
C233        C439   1.460       .  S
O235        C236   1.262       .  A
C236        O237   1.260       .  A
C236        C448   1.432       .  S
O238       Cr692   1.960       .  S
O238        C239   1.255       .  A
C239        O240   1.270       .  A
C239        C443   1.434       .  S
O240       Cr693   2.025       .  S
O241       Cr693   1.980       .  S
O241        C690   1.254       .  A
C242        O689   1.254   1_455  A
C242        C437   1.442       .  S
Cr243       O246   1.775       .  S
Cr244       O686   1.960   1_455  S
Cr244       O246   1.777       .  S
Cr245       O688   2.025   1_455  S
Cr245       O689   1.980   1_455  S
Cr245       O246   1.773       .  S
O247       Cr265   2.036       .  S
O247        C255   1.274       .  A
O248       Cr265   1.961       .  S
O248        C249   1.255       .  A
C249        O250   1.263       .  A
C249        C430   1.428       .  S
O250       Cr266   2.010       .  S
O251       Cr266   1.983       .  S
O251        C252   1.260       .  A
C252        O253   1.266       .  A
C252        C433   1.439       .  S
O253       Cr267   2.012       .  S
O254       Cr267   1.990       .  S
O254        C255   1.264       .  A
C255        C440   1.460       .  S
O256       Cr265   1.977       .  S
O256        C264   1.255       .  A
O257       Cr265   2.031       .  S
O257        C258   1.269       .  A
C258        O259   1.254       .  A
C258        C436   1.438       .  S
O259       Cr266   1.961       .  S
O260       Cr266   1.994       .  S
O260        C261   1.262       .  A
C261        O262   1.261       .  A
C261        C432   1.431       .  S
O262       Cr267   1.992       .  S
O263       Cr267   2.013       .  S
O263        C264   1.263       .  A
C264        C427   1.441       .  S
Cr265       O268   1.771       .  S
Cr266       O268   1.775       .  S
Cr267       O268   1.773       .  S
O269       Cr287   2.036       .  S
O269        C277   1.274       .  A
O270       Cr287   1.961       .  S
O270        C271   1.255       .  A
C271        O272   1.263       .  A
C271        C419   1.428       .  S
O272       Cr288   2.011       .  S
O273       Cr288   1.983       .  S
O273        C274   1.260       .  A
C274        O275   1.266       .  A
C274        C424   1.440       .  S
O275       Cr289   2.013       .  S
O276       Cr289   1.990       .  S
O276        C277   1.264       .  A
C277        C417   1.460       .  S
O278       Cr287   1.977       .  S
O278        C286   1.255       .  A
O279       Cr287   2.031       .  S
O279        C280   1.269       .  A
C280        O281   1.254       .  A
C280        C426   1.437       .  S
O281       Cr288   1.960       .  S
O282       Cr288   1.994       .  S
O282        C283   1.262       .  A
C283        O284   1.261       .  A
C283        C422   1.432       .  S
O284       Cr289   1.992       .  S
O285       Cr289   2.013       .  S
O285        C286   1.263       .  A
C286        C428   1.441       .  S
Cr287       O290   1.771       .  S
Cr288       O290   1.775       .  S
Cr289       O290   1.773       .  S
O291       Cr309   1.988       .  S
O291        C299   1.264       .  A
O292       Cr309   2.002       .  S
O292        C293   1.264       .  A
C293        O294   1.262       .  A
C293        C412   1.430       .  S
O294       Cr310   1.981       .  S
O295       Cr310   2.010   1_545  S
O295        C296   1.261   1_545  A
C296        O297   1.257       .  A
C296        C415   1.438   1_565  S
O297       Cr311   1.975       .  S
O298       Cr311   2.036       .  S
O298        C299   1.274       .  A
C299        C418   1.460       .  S
O300       Cr757   2.007       .  S
O300        C756   1.261       .  A
O301       Cr757   1.997   1_455  S
O301        C302   1.262       .  A
C302        O303   1.260       .  A
C302        C413   1.432       .  S
O303       Cr758   1.991   1_455  S
O304        C305   1.255       .  A
C305        O306   1.270       .  A
C305        C409   1.434       .  S
C308        O748   1.261       .  A
C308        C438   1.442       .  S
Cr309       O748   2.007       .  S
Cr309       O749   1.997       .  S
Cr309       O312   1.775       .  S
Cr310       O751   1.991       .  S
Cr310       O312   1.777       .  S
Cr311       O312   1.773       .  S
O313       Cr331   1.999       .  S
O313        C321   1.265       .  A
O314       Cr331   2.004       .  S
O314        C315   1.266       .  A
C315        O316   1.261       .  A
C315        C431   1.432       .  S
O316       Cr332   1.980       .  S
O317       Cr332   2.005       .  S
O317        C318   1.260       .  A
C318        O319   1.258       .  A
C318        C447   1.435       .  S
O319       Cr333   1.977       .  S
O320       Cr333   2.027       .  S
O320        C321   1.270       .  A
C321        C407   1.462       .  S
O322       Cr331   2.011       .  S
O322        C330   1.262       .  A
O323       Cr331   2.003       .  S
O323        C324   1.263       .  A
C324        O325   1.259       .  A
C324        C445   1.436       .  S
O325       Cr332   1.990       .  S
O326       Cr780   1.962   1_455  S
O326        C327   1.256       .  A
C327        O328   1.266       .  A
C327        C429   1.429       .  S
O328       Cr781   2.014   1_455  S
O329       Cr781   1.983   1_455  S
O329        C778   1.256   1_455  A
C330        O777   1.256       .  A
C330        C405   1.447       .  S
Cr331       O334   1.774       .  S
Cr332       O774   1.962       .  S
Cr332       O334   1.780       .  S
Cr333       O776   2.014       .  S
Cr333       O777   1.984       .  S
Cr333       O334   1.774       .  S
O335       Cr353   1.995       .  S
O335        C343   1.265       .  A
O336       Cr353   2.000   1_545  S
O336        C337   1.263   1_545  A
C337        O338   1.262       .  A
C337        C444   1.433   1_565  S
O338       Cr354   1.987       .  S
O339       Cr354   2.011       .  S
O339        C340   1.261       .  A
C340        O341   1.256       .  A
C340        C435   1.439       .  S
O341       Cr355   1.973       .  S
O342       Cr355   2.030       .  S
O342        C343   1.273       .  A
C343        C408   1.461       .  S
O345        C346   1.265       .  A
C346        O347   1.261       .  A
C346        C434   1.437       .  S
O348       Cr354   1.959   1_545  S
O348        C349   1.255   1_545  A
C349        O350   1.268       .  A
C349        C441   1.431       .  S
O350       Cr355   2.018       .  S
O351       Cr355   1.983       .  S
O351        C352   1.254       .  A
C352        C404   1.447       .  S
Cr353       O356   1.776       .  S
Cr354       O356   1.778       .  S
Cr355       O356   1.775       .  S
O357       Cr375   1.995       .  S
O357        C365   1.265       .  A
O358       Cr375   1.999   1_655  S
O358        C359   1.263   1_655  A
C359        O360   1.262       .  A
C359        C410   1.433   1_455  S
O360       Cr376   1.987       .  S
O361       Cr376   2.010       .  S
O361        C362   1.261       .  A
C362        O363   1.256       .  A
C362        C425   1.439       .  S
O363       Cr377   1.973       .  S
O364       Cr377   2.029       .  S
O364        C365   1.272       .  A
C365        C401   1.461       .  S
O366       Cr823   2.011       .  S
O366        C822   1.261       .  A
O367       Cr823   2.005       .  S
O367        C368   1.265       .  A
C368        O369   1.261       .  A
C368        C423   1.437       .  S
O369       Cr824   1.991       .  S
O370       Cr376   1.959   1_655  S
O370        C371   1.255   1_655  A
C371        O372   1.268       .  A
C371        C411   1.430       .  S
O372       Cr377   2.018       .  S
O373       Cr377   1.983       .  S
O373        C374   1.254       .  A
C374        O814   1.261       .  A
C374        C406   1.447       .  S
Cr375       O814   2.011       .  S
Cr375       O815   2.005   1_455  S
Cr375       O378   1.776       .  S
Cr376       O817   1.991   1_455  S
Cr376       O378   1.778       .  S
Cr377       O378   1.776       .  S
O379       Cr397   1.999       .  S
O379        C387   1.265       .  A
O380       Cr397   2.004       .  S
O380        C381   1.266       .  A
C381        O382   1.261       .  A
C381        C421   1.432       .  S
O382       Cr398   1.981       .  S
O383       Cr398   2.005       .  S
O383        C384   1.260       .  A
C384        O385   1.258       .  A
C384        C414   1.435       .  S
O385       Cr399   1.977       .  S
O386       Cr399   2.026       .  S
O386        C387   1.270       .  A
C387        C402   1.461       .  S
O388       Cr397   2.011       .  S
O388        C396   1.263       .  A
O389       Cr397   2.002       .  S
O389        C390   1.263       .  A
C390        O391   1.259       .  A
C390        C416   1.436       .  S
O391       Cr398   1.990       .  S
O392        C393   1.256       .  A
C393        O394   1.266       .  A
C393        C420   1.429       .  S
C396        C403   1.447       .  S
Cr397       O400   1.774       .  S
Cr398       O400   1.780       .  S
Cr399       O400   1.774       .  S
C401        C402   1.221       .  T
C405        C854   1.213   1_556  T
C406        C853   1.213   1_454  T
C407        C408   1.222       .  T
C409        C858   1.205       .  T
C410        C857   1.205       .  T
C411        C860   1.203       .  T
C412        C859   1.203       .  T
C417        C418   1.221       .  T
C419        C420   1.202       .  T
C421        C422   1.204       .  T
C423        C424   1.208       .  T
C425        C426   1.208       .  T
C427        C428   1.210       .  T
C429        C430   1.202       .  T
C431        C432   1.204       .  T
C433        C434   1.208       .  T
C435        C436   1.208       .  T
C437        C662   1.210   1_455  T
C438        C661   1.210   1_565  T
C439        C440   1.221       .  T
C445        C894   1.208       .  T
C446        C893   1.208       .  T
C447        C896   1.205       .  T
C448        C895   1.205       .  T
O449       Cr467   1.988       .  S
O449        C457   1.263       .  A
O450       Cr467   2.002   1_565  S
O450        C451   1.264   1_565  A
C451        O452   1.262       .  A
C451        C666   1.430   1_545  S
O452       Cr468   1.981       .  S
O453       Cr468   2.009       .  S
O453        C454   1.261       .  A
C454        O455   1.257       .  A
C454        C670   1.438       .  S
O455       Cr469   1.976       .  S
O456       Cr469   2.035       .  S
O456        C457   1.274       .  A
C457        C663   1.460       .  S
O458       Cr691   2.006       .  S
O458        C690   1.260       .  A
O459       Cr691   1.998       .  S
O459        C460   1.262       .  A
C460        O461   1.260       .  A
C460        C672   1.432       .  S
O461       Cr692   1.991       .  S
O462        C463   1.255   1_565  A
C463        O464   1.270       .  A
C463        C667   1.434       .  S
C466        O682   1.260       .  A
C466        C661   1.442       .  S
Cr467       O682   2.006       .  S
Cr467       O683   1.997   1_545  S
Cr467       O470   1.775       .  S
Cr468       O685   1.991   1_545  S
Cr468       O470   1.777       .  S
Cr469       O470   1.773       .  S
O471       Cr489   2.036       .  S
O471        C479   1.274       .  A
O472       Cr489   1.961       .  S
O472        C473   1.255       .  A
C473        O474   1.263       .  A
C473        C654   1.428       .  S
O474       Cr490   2.010       .  S
O475       Cr490   1.983       .  S
O475        C476   1.260       .  A
C476        O477   1.266       .  A
C476        C657   1.439       .  S
O477       Cr491   2.012       .  S
O478       Cr491   1.990       .  S
O478        C479   1.264       .  A
C479        C664   1.460       .  S
O480       Cr489   1.977       .  S
O480        C488   1.255       .  A
O481       Cr489   2.031       .  S
O481        C482   1.269       .  A
C482        O483   1.254       .  A
C482        C660   1.438       .  S
O483       Cr490   1.961       .  S
O484       Cr490   1.994       .  S
O484        C485   1.262       .  A
C485        O486   1.261       .  A
C485        C656   1.432       .  S
O486       Cr491   1.992       .  S
O487       Cr491   2.012       .  S
O487        C488   1.263       .  A
C488        C651   1.441       .  S
Cr489       O492   1.771       .  S
Cr490       O492   1.775       .  S
Cr491       O492   1.773       .  S
O493       Cr511   2.036       .  S
O493        C501   1.274       .  A
O494       Cr511   1.961       .  S
O494        C495   1.255       .  A
C495        O496   1.263       .  A
C495        C643   1.428       .  S
O496       Cr512   2.011       .  S
O497       Cr512   1.983       .  S
O497        C498   1.260       .  A
C498        O499   1.266       .  A
C498        C648   1.440       .  S
O499       Cr513   2.012       .  S
O500       Cr513   1.990       .  S
O500        C501   1.264       .  A
C501        C641   1.460       .  S
O502       Cr511   1.976       .  S
O502        C510   1.254       .  A
O503       Cr511   2.031       .  S
O503        C504   1.269       .  A
C504        O505   1.254       .  A
C504        C650   1.437       .  S
O505       Cr512   1.960       .  S
O506       Cr512   1.994       .  S
O506        C507   1.262       .  A
C507        O508   1.261       .  A
C507        C646   1.432       .  S
O508       Cr513   1.992       .  S
O509       Cr513   2.013       .  S
O509        C510   1.263       .  A
C510        C652   1.441       .  S
Cr511       O514   1.771       .  S
Cr512       O514   1.775       .  S
Cr513       O514   1.773       .  S
O515       Cr533   1.988       .  S
O515        C523   1.264       .  A
O516       Cr533   2.002   1_455  S
O516        C517   1.264   1_455  A
C517        O518   1.262       .  A
C517        C636   1.430   1_655  S
O518       Cr534   1.981       .  S
O519       Cr534   2.010       .  S
O519        C520   1.261       .  A
C520        O521   1.257       .  A
C520        C639   1.438       .  S
O521       Cr535   1.975       .  S
O522       Cr535   2.036       .  S
O522        C523   1.274       .  A
C523        C642   1.460       .  S
O525        C526   1.262       .  A
C526        O527   1.260       .  A
C526        C637   1.432       .  S
O528       Cr758   1.960   1_445  S
O528        C529   1.255   1_455  A
C529        O530   1.270       .  A
C529        C633   1.434       .  S
O530       Cr759   2.024   1_545  S
O531       Cr759   1.979   1_545  S
O531        C756   1.254   1_545  A
C532        O755   1.254       .  A
C532        C662   1.442       .  S
Cr533       O536   1.775       .  S
Cr534       O752   1.960   1_655  S
Cr534       O536   1.777       .  S
Cr535       O754   2.024       .  S
Cr535       O755   1.979       .  S
Cr535       O536   1.773       .  S
O537       Cr555   1.999       .  S
O537        C545   1.265       .  A
O538       Cr555   2.004       .  S
O538        C539   1.266       .  A
C539        O540   1.261       .  A
C539        C655   1.432       .  S
O540       Cr556   1.980       .  S
O541       Cr556   2.005   1_455  S
O541        C542   1.260   1_455  A
C542        O543   1.258       .  A
C542        C671   1.435   1_655  S
O543       Cr557   1.977       .  S
O544       Cr557   2.027       .  S
O544        C545   1.270       .  A
C545        C631   1.462       .  S
O546       Cr555   2.011       .  S
O546        C554   1.262       .  A
O547       Cr555   2.003       .  S
O547        C548   1.263       .  A
C548        O549   1.259       .  A
C548        C669   1.436       .  S
O549       Cr556   1.990       .  S
O550        C551   1.256       .  A
C551        O552   1.266       .  A
C551        C653   1.429       .  S
C554        C629   1.447       .  S
Cr555       O558   1.774       .  S
Cr556       O558   1.780       .  S
Cr557       O558   1.774       .  S
O559       Cr577   1.995       .  S
O559        C567   1.265       .  A
O560       Cr577   2.000       .  S
O560        C561   1.263       .  A
C561        O562   1.262       .  A
C561        C668   1.433       .  S
O562       Cr578   1.987       .  S
O563       Cr578   2.011       .  S
O563        C564   1.261       .  A
C564        O565   1.256       .  A
C564        C659   1.439       .  S
O565       Cr579   1.973       .  S
O566       Cr579   2.030       .  S
O566        C567   1.273       .  A
C567        C632   1.461       .  S
O568       Cr801   2.011       .  S
O568        C800   1.261       .  A
O569       Cr801   2.004   1_545  S
O569        C570   1.265       .  A
C570        O571   1.261       .  A
C570        C658   1.437       .  S
O571       Cr802   1.992   1_545  S
O572       Cr578   1.959       .  S
O572        C573   1.255       .  A
C573        O574   1.268       .  A
C573        C665   1.431       .  S
O574       Cr579   2.018       .  S
O575       Cr579   1.983       .  S
O575        C576   1.254       .  A
C576        O792   1.261       .  A
C576        C628   1.447       .  S
Cr577       O792   2.011       .  S
Cr577       O793   2.004       .  S
Cr577       O580   1.776       .  S
Cr578       O795   1.992       .  S
Cr578       O580   1.778       .  S
Cr579       O580   1.775       .  S
O581       Cr599   1.995       .  S
O581        C589   1.265       .  A
O582       Cr599   1.999       .  S
O582        C583   1.263       .  A
C583        O584   1.262       .  A
C583        C634   1.433       .  S
O584       Cr600   1.987       .  S
O585       Cr600   2.010       .  S
O585        C586   1.261       .  A
C586        O587   1.256       .  A
C586        C649   1.439       .  S
O587       Cr601   1.973       .  S
O588       Cr601   2.029       .  S
O588        C589   1.272       .  A
C589        C625   1.461       .  S
O591        C592   1.265       .  A
C592        O593   1.261       .  A
C592        C647   1.437       .  S
O594       Cr600   1.959       .  S
O594        C595   1.255       .  A
C595        O596   1.268       .  A
C595        C635   1.430       .  S
O596       Cr601   2.018       .  S
O597       Cr601   1.983       .  S
O597        C598   1.254       .  A
C598        C630   1.447       .  S
Cr599       O602   1.776       .  S
Cr600       O602   1.778       .  S
Cr601       O602   1.776       .  S
O603       Cr621   1.999       .  S
O603        C611   1.265       .  A
O604       Cr621   2.004       .  S
O604        C605   1.266       .  A
C605        O606   1.261       .  A
C605        C645   1.432       .  S
O606       Cr622   1.981       .  S
O607       Cr622   2.005   1_565  S
O607        C608   1.260   1_565  A
C608        O609   1.258       .  A
C608        C638   1.435   1_545  S
O609       Cr623   1.977       .  S
O610       Cr623   2.026       .  S
O610        C611   1.270       .  A
C611        C626   1.461       .  S
O612       Cr621   2.011       .  S
O612        C620   1.263       .  A
O613       Cr621   2.002       .  S
O613        C614   1.263       .  A
C614        O615   1.259       .  A
C614        C640   1.436       .  S
O615       Cr622   1.990       .  S
O616       Cr846   1.963       .  S
O616        C617   1.256       .  A
C617        O618   1.266       .  A
C617        C644   1.429       .  S
O618       Cr847   2.014       .  S
O619       Cr847   1.983       .  S
O619        C844   1.256       .  A
C620        O843   1.256   1_545  A
C620        C627   1.447       .  S
Cr621       O624   1.774       .  S
Cr622       O840   1.963   1_545  S
Cr622       O624   1.780       .  S
Cr623       O842   2.014   1_545  S
Cr623       O843   1.983   1_545  S
Cr623       O624   1.774       .  S
C625        C626   1.221       .  T
C627        C852   1.213   1_544  T
C628        C851   1.213   1_556  T
C631        C632   1.222       .  T
C637        C862   1.205       .  T
C638        C861   1.205       .  T
C639        C864   1.208       .  T
C640        C863   1.208       .  T
C641        C642   1.221       .  T
C643        C644   1.202       .  T
C645        C646   1.204       .  T
C647        C648   1.208       .  T
C649        C650   1.208       .  T
C651        C652   1.209       .  T
C653        C654   1.202       .  T
C655        C656   1.204       .  T
C657        C658   1.208       .  T
C659        C660   1.208       .  T
C663        C664   1.221       .  T
C665        C890   1.203       .  T
C666        C889   1.203       .  T
C667        C892   1.205       .  T
C668        C891   1.205       .  T
O673       Cr691   1.988       .  S
O673        C681   1.263       .  A
O674       Cr691   2.002       .  S
O674        C675   1.264       .  A
C675        O676   1.262       .  A
C675        C890   1.430       .  S
O676       Cr692   1.981       .  S
O677       Cr692   2.009       .  S
O677        C678   1.261       .  A
C678        O679   1.257       .  A
C678        C894   1.438       .  S
O679       Cr693   1.976       .  S
O680       Cr693   2.035       .  S
O680        C681   1.274       .  A
C681        C887   1.460       .  S
O683        C684   1.262       .  A
C684        O685   1.260       .  A
C684        C896   1.432       .  S
O686        C687   1.255       .  A
C687        O688   1.270       .  A
C687        C891   1.434       .  S
C690        C885   1.442       .  S
Cr691       O694   1.775       .  S
Cr692       O694   1.777       .  S
Cr693       O694   1.773       .  S
O695       Cr713   2.036       .  S
O695        C703   1.274       .  A
O696       Cr713   1.961       .  S
O696        C697   1.255       .  A
C697        O698   1.263       .  A
C697        C878   1.428       .  S
O698       Cr714   2.010       .  S
O699       Cr714   1.983       .  S
O699        C700   1.260       .  A
C700        O701   1.266       .  A
C700        C881   1.439       .  S
O701       Cr715   2.012       .  S
O702       Cr715   1.990       .  S
O702        C703   1.264       .  A
C703        C888   1.460       .  S
O704       Cr713   1.977       .  S
O704        C712   1.255       .  A
O705       Cr713   2.031       .  S
O705        C706   1.269       .  A
C706        O707   1.254       .  A
C706        C884   1.438       .  S
O707       Cr714   1.961       .  S
O708       Cr714   1.994       .  S
O708        C709   1.262       .  A
C709        O710   1.261       .  A
C709        C880   1.432       .  S
O710       Cr715   1.992       .  S
O711       Cr715   2.013       .  S
O711        C712   1.263       .  A
C712        C875   1.441       .  S
Cr713       O716   1.771       .  S
Cr714       O716   1.775       .  S
Cr715       O716   1.772       .  S
O717       Cr735   2.036       .  S
O717        C725   1.274       .  A
O718       Cr735   1.961       .  S
O718        C719   1.255       .  A
C719        O720   1.263       .  A
C719        C867   1.428       .  S
O720       Cr736   2.011       .  S
O721       Cr736   1.983       .  S
O721        C722   1.260       .  A
C722        O723   1.266       .  A
C722        C872   1.440       .  S
O723       Cr737   2.013       .  S
O724       Cr737   1.990       .  S
O724        C725   1.264       .  A
C725        C865   1.460       .  S
O726       Cr735   1.976       .  S
O726        C734   1.254       .  A
O727       Cr735   2.031       .  S
O727        C728   1.269       .  A
C728        O729   1.254       .  A
C728        C874   1.437       .  S
O729       Cr736   1.960       .  S
O730       Cr736   1.994       .  S
O730        C731   1.262       .  A
C731        O732   1.261       .  A
C731        C870   1.432       .  S
O732       Cr737   1.992       .  S
O733       Cr737   2.013       .  S
O733        C734   1.263       .  A
C734        C876   1.441       .  S
Cr735       O738   1.771       .  S
Cr736       O738   1.775       .  S
Cr737       O738   1.773       .  S
O739       Cr757   1.988       .  S
O739        C747   1.264       .  A
O740       Cr757   2.002   1_455  S
O740        C741   1.264   1_455  A
C741        O742   1.262       .  A
C741        C860   1.430   1_655  S
O742       Cr758   1.981       .  S
O743       Cr758   2.010   1_545  S
O743        C744   1.261   1_545  A
C744        O745   1.257       .  A
C744        C863   1.438   1_565  S
O745       Cr759   1.975       .  S
O746       Cr759   2.036       .  S
O746        C747   1.274       .  A
C747        C866   1.460       .  S
O749        C750   1.262       .  A
C750        O751   1.260       .  A
C750        C861   1.432       .  S
O752        C753   1.255   1_455  A
C753        O754   1.270       .  A
C753        C857   1.434       .  S
C756        C886   1.442       .  S
Cr757       O760   1.775       .  S
Cr758       O760   1.777       .  S
Cr759       O760   1.773       .  S
O761       Cr779   1.999       .  S
O761        C769   1.265       .  A
O762       Cr779   2.004       .  S
O762        C763   1.266       .  A
C763        O764   1.261       .  A
C763        C879   1.432       .  S
O764       Cr780   1.980       .  S
O765       Cr780   2.005   1_455  S
O765        C766   1.260   1_455  A
C766        O767   1.258       .  A
C766        C895   1.435   1_655  S
O767       Cr781   1.977       .  S
O768       Cr781   2.027       .  S
O768        C769   1.270       .  A
C769        C855   1.462       .  S
O770       Cr779   2.011       .  S
O770        C778   1.262       .  A
O771       Cr779   2.003       .  S
O771        C772   1.263       .  A
C772        O773   1.259       .  A
C772        C893   1.436       .  S
O773       Cr780   1.990       .  S
O774        C775   1.256       .  A
C775        O776   1.266       .  A
C775        C877   1.429       .  S
C778        C853   1.447       .  S
Cr779       O782   1.774       .  S
Cr780       O782   1.780       .  S
Cr781       O782   1.774       .  S
O783       Cr801   1.995       .  S
O783        C791   1.265       .  A
O784       Cr801   2.000   1_545  S
O784        C785   1.263   1_545  A
C785        O786   1.262       .  A
C785        C892   1.433   1_565  S
O786       Cr802   1.987       .  S
O787       Cr802   2.011       .  S
O787        C788   1.261       .  A
C788        O789   1.256       .  A
C788        C883   1.439       .  S
O789       Cr803   1.973       .  S
O790       Cr803   2.030       .  S
O790        C791   1.273       .  A
C791        C856   1.461       .  S
O793        C794   1.265       .  A
C794        O795   1.261       .  A
C794        C882   1.437       .  S
O796       Cr802   1.959   1_545  S
O796        C797   1.255   1_545  A
C797        O798   1.268       .  A
C797        C889   1.431       .  S
O798       Cr803   2.018       .  S
O799       Cr803   1.983       .  S
O799        C800   1.254       .  A
C800        C852   1.447       .  S
Cr801       O804   1.776       .  S
Cr802       O804   1.778       .  S
Cr803       O804   1.775       .  S
O805       Cr823   1.995       .  S
O805        C813   1.265       .  A
O806       Cr823   1.999       .  S
O806        C807   1.263       .  A
C807        O808   1.263       .  A
C807        C858   1.433       .  S
O808       Cr824   1.987       .  S
O809       Cr824   2.010       .  S
O809        C810   1.261       .  A
C810        O811   1.256       .  A
C810        C873   1.439       .  S
O811       Cr825   1.974       .  S
O812       Cr825   2.029       .  S
O812        C813   1.272       .  A
C813        C849   1.461       .  S
O815        C816   1.265       .  A
C816        O817   1.261       .  A
C816        C871   1.437       .  S
O818       Cr824   1.959       .  S
O818        C819   1.255       .  A
C819        O820   1.268       .  A
C819        C859   1.430       .  S
O820       Cr825   2.018       .  S
O821       Cr825   1.983       .  S
O821        C822   1.254       .  A
C822        C854   1.447       .  S
Cr823       O826   1.776       .  S
Cr824       O826   1.778       .  S
Cr825       O826   1.776       .  S
O827       Cr845   1.999       .  S
O827        C835   1.265       .  A
O828       Cr845   2.004       .  S
O828        C829   1.266       .  A
C829        O830   1.261       .  A
C829        C869   1.432       .  S
O830       Cr846   1.981       .  S
O831       Cr846   2.005       .  S
O831        C832   1.260       .  A
C832        O833   1.258       .  A
C832        C862   1.435       .  S
O833       Cr847   1.977       .  S
O834       Cr847   2.026       .  S
O834        C835   1.270       .  A
C835        C850   1.461       .  S
O836       Cr845   2.011       .  S
O836        C844   1.263       .  A
O837       Cr845   2.002       .  S
O837        C838   1.263       .  A
C838        O839   1.259       .  A
C838        C864   1.436       .  S
O839       Cr846   1.990       .  S
O840        C841   1.256       .  A
C841        O842   1.266       .  A
C841        C868   1.429       .  S
C844        C851   1.447       .  S
Cr845       O848   1.774       .  S
Cr846       O848   1.780       .  S
Cr847       O848   1.774       .  S
C849        C850   1.221       .  T
C855        C856   1.222       .  T
C865        C866   1.221       .  T
C867        C868   1.202       .  T
C869        C870   1.204       .  T
C871        C872   1.208       .  T
C873        C874   1.208       .  T
C875        C876   1.210       .  T
C877        C878   1.202       .  T
C879        C880   1.204       .  T
C881        C882   1.208       .  T
C883        C884   1.208       .  T
C887        C888   1.221       .  T
