geometry optimzed in LAMMPS
_audit_creation_date              2020-11-30 
_audit_creation_method            'lammps2cif' 
_symmetry_space_group_name_H-M    'P1' 
_symmetry_Int_Tables_number       1 
_symmetry_cell_setting            triclinic 
loop_ 
_symmetry_equiv_pos_as_xyz 
  x,y,z 
_cell_length_a                    34.20383285 
_cell_length_b                    34.249909067301864 
_cell_length_c                    66.05518794446193 
_cell_angle_alpha                 90.05671552904406 
_cell_angle_beta                  89.06249858395203 
_cell_angle_gamma                 120.08218563060716 
loop_ 
_atom_site_label 
_atom_site_type_symbol 
_atom_site_fract_x 
_atom_site_fract_y 
_atom_site_fract_z 
_atom_site_charge 
O1          O  0.63449710  0.74123904  0.57096976    -0.80500
O2          O  0.61203400  0.78161848  0.65951215    -0.65200
O3          O  0.64822287  0.79902546  0.60384714    -1.11800
C4          C  0.77046287  0.78432077  0.62321979     1.06400
O5          O  0.68133952  0.81703570  0.67211119    -0.78400
O6          O  0.73624537  0.86528880  0.64042713    -0.66000
Ni7        Ni  0.60464433  0.77080719  0.58323057     1.34900
C8          C  0.74935780  0.87604462  0.62212969     0.85100
O9          O  0.58243284  0.80557078  0.62715186    -0.79000
O10         O  0.57154817  0.79846482  0.59350075    -0.89200
C11         C  0.63859780  0.79844046  0.67423395     0.84700
O12         O  0.56369396  0.71565468  0.59695886    -0.67500
O13         O  0.76872734  0.80607478  0.63856297    -0.86700
C14         C  0.55981660  0.70233179  0.61520276     0.85500
C15         C  0.56332148  0.80823741  0.61114760     1.07100
H16         H  0.66266867  0.74378502  0.63841591     0.38900
O17         O  0.67568638  0.77522956  0.63473199    -1.09400
O18         O  0.73928064  0.84665497  0.60823712    -0.66000
Ni19       Ni  0.69359065  0.78271550  0.60670745     1.26300
O20         O  0.58512492  0.72707163  0.62917890    -0.66300
O21         O  0.73877072  0.76641175  0.61057098    -0.78600
C22         C  0.67624368  0.75806450  0.56653631     0.84900
O23         O  0.70648806  0.78621271  0.57817403    -0.65700
Ni24       Ni  0.72185149  0.81029697  0.65360149     1.27400
Ni25       Ni  0.62879379  0.79010158  0.63146491     1.26100
H26         H  0.66271052  0.83104215  0.60111454     0.39400
O27         O  0.77594664  0.64006657  0.43234311    -0.80500
O28         O  0.79260367  0.60314722  0.33983270    -0.65200
O29         O  0.81940777  0.64219357  0.39486780    -1.11800
C30         C  0.79925395  0.76207281  0.37113204     1.06400
O31         O  0.84373754  0.67200350  0.33015867    -0.78400
O32         O  0.88351437  0.74303481  0.35416907    -0.66000
Ni33       Ni  0.79301638  0.60171013  0.41729291     1.34900
C34         C  0.89781155  0.74888492  0.37212345     0.85100
O35         O  0.81709113  0.57227110  0.37149767    -0.79000
O36         O  0.80870273  0.55976096  0.40511994    -0.89200
C37         C  0.81887859  0.63044649  0.32631523     0.84700
O38         O  0.73342101  0.56820137  0.40703716    -0.67500
O39         O  0.80837462  0.75258537  0.35363255    -0.86700
C40         C  0.71741262  0.55988984  0.38930710     0.85500
C41         C  0.81697590  0.55089043  0.38725988     1.07100
H42         H  0.76203903  0.65781899  0.36290234     0.38900
O43         O  0.79399017  0.66955977  0.36470688    -1.09400
O44         O  0.87194303  0.73120605  0.38744856    -0.66000
Ni45       Ni  0.80803485  0.69122550  0.39171969     1.26300
O46         O  0.74106307  0.57889300  0.37338250    -0.66300
O47         O  0.79715703  0.74056984  0.38730347    -0.78600
C48         C  0.79599781  0.68297891  0.43384365     0.84900
O49         O  0.81920414  0.70869914  0.41931143    -0.65700
Ni50       Ni  0.82486088  0.71055160  0.34286526     1.27400
Ni51       Ni  0.80468341  0.62032230  0.36777091     1.26100
H52         H  0.85158324  0.65441975  0.39606097     0.39400
O53         O  0.35223977  0.10868827  0.43450451    -0.80500
O54         O  0.38262627  0.17042031  0.34460023    -0.65200
O55         O  0.34151151  0.15121176  0.39996227    -1.11800
C56         C  0.22502971  0.01304616  0.37609762     1.06400
O57         O  0.31377596  0.14915720  0.33420246    -0.78400
O58         O  0.24921148  0.12574844  0.36293826    -0.66000
Ni59       Ni  0.38322529  0.16759477  0.42157353     1.34900
C60         C  0.23698001  0.12216843  0.38139107     0.85100
O61         O  0.41056169  0.22349154  0.37726173    -0.79000
O62         O  0.41825274  0.22844547  0.41105369    -0.89200
C63         C  0.35593662  0.16652378  0.33061802     0.84700
O64         O  0.42369636  0.15130282  0.40913949    -0.67500
O65         O  0.22891716  0.03700519  0.36053903    -0.86700
C66         C  0.42866997  0.14047844  0.39128325     0.85500
C67         C  0.42820225  0.24580235  0.39327440     1.07100
H68         H  0.32949907  0.08339707  0.36462549     0.38900
O69         O  0.31673507  0.10194956  0.36848748    -1.09400
O70         O  0.25036369  0.10529892  0.39489237    -0.66000
Ni71       Ni  0.29688628  0.08899393  0.39612481     1.26300
O72         O  0.40606103  0.14128715  0.37636183    -0.66300
O73         O  0.25250821  0.02760421  0.39073356    -0.78600
C74         C  0.31037027  0.08039811  0.43709618     0.84900
O75         O  0.28132228  0.07682258  0.42438104    -0.65700
Ni76       Ni  0.27348280  0.09403090  0.34868828     1.27400
Ni77       Ni  0.36398766  0.16241895  0.37258202     1.26100
H78         H  0.32627546  0.16824054  0.40207310     0.39400
O79         O  0.20818566  0.85003553  0.56686791    -0.80500
O80         O  0.20513724  0.79971350  0.65847117    -0.65200
O81         O  0.16814036  0.81001259  0.60538359    -1.11800
C82         C  0.18693627  0.94825921  0.62543643     1.06400
O83         O  0.17962298  0.83924761  0.67520940    -0.78400
O84         O  0.11681202  0.83556279  0.64941017    -0.66000
Ni85       Ni  0.19177685  0.79480551  0.58203296     1.34900
C86         C  0.09814470  0.83398409  0.63276039     0.85100
O87         O  0.16975567  0.74206292  0.62801383    -0.79000
O88         O  0.17635199  0.73751643  0.59425106    -0.89200
C89         C  0.19584751  0.81299532  0.67482067     0.84700
O90         O  0.25300232  0.81985427  0.59042326    -0.67500
O91         O  0.17098638  0.92687179  0.64206640    -0.86700
C92         C  0.27040987  0.82681410  0.60784692     0.85500
C93         C  0.16827665  0.72034681  0.61208246     1.07100
H94         H  0.23554247  0.88553012  0.63505789     0.38900
O95         O  0.20312833  0.86637904  0.63447417    -1.09400
O96         O  0.12081527  0.85145888  0.61637122    -0.66000
Ni97       Ni  0.18332744  0.87116948  0.60807887     1.26300
O98         O  0.24833125  0.82249709  0.62413209    -0.66300
O99         O  0.20018767  0.93286463  0.61113937    -0.78600
C100        C  0.18783990  0.87268656  0.56610421     0.84900
O101        O  0.16571430  0.87456869  0.58125074    -0.65700
Ni102      Ni  0.17594889  0.88070256  0.65672484     1.27400
Ni103      Ni  0.18696641  0.80415284  0.63172332     1.26100
H104        H  0.13566712  0.79111942  0.60503363     0.39400
O105        O  0.11449216  0.32457087  0.56561213    -0.80500
O106        O  0.17508403  0.36169713  0.65630527    -0.65200
O107        O  0.15816261  0.31971864  0.60144238    -1.11800
C108        C  0.01759808  0.20235521  0.62371500     1.06400
O109        O  0.14014680  0.29306979  0.67037049    -0.78400
O110        O  0.12795972  0.23052813  0.64257465    -0.66000
Ni111      Ni  0.17182628  0.35990816  0.57895454     1.34900
C112        C  0.12874475  0.21767900  0.62462422     0.85100
O113        O  0.23016202  0.38815717  0.62316838    -0.79000
O114        O  0.23069671  0.39850017  0.58942450    -0.89200
C115        C  0.16532535  0.33566415  0.67159826     0.84700
O116        O  0.15050570  0.39703314  0.59045430    -0.67500
O117        O  0.03826214  0.20610049  0.64012482    -0.86700
C118        C  0.14495514  0.40624206  0.60853613     0.85500
C119        C  0.25004346  0.40758934  0.60649595     1.07100
H120        H  0.08709523  0.31038429  0.63485378     0.38900
O121        O  0.10537659  0.29653695  0.63250862    -1.09400
O122        O  0.11410375  0.22965845  0.60964418    -0.66000
Ni123      Ni  0.09658314  0.27479784  0.60526988     1.26300
O124        O  0.14956141  0.38675899  0.62393558    -0.66300
O125        O  0.03461417  0.23100925  0.60945467    -0.78600
C126        C  0.09169544  0.28192438  0.56373618     0.84900
O127        O  0.08967367  0.25611870  0.57783588    -0.65700
Ni128      Ni  0.09106272  0.25258408  0.65353261     1.27400
Ni129      Ni  0.16774167  0.34256070  0.62850401     1.26100
H130        H  0.17604587  0.30531350  0.59949581     0.39400
O131        O  0.86227964  0.21560944  0.43237414    -0.80500
O132        O  0.81430256  0.17868319  0.34240909    -0.65200
O133        O  0.82667490  0.15966485  0.39815998    -1.11800
C134        C  0.96793792  0.18282616  0.37941276     1.06400
O135        O  0.84382936  0.13702262  0.33189412    -0.78400
O136        O  0.85437676  0.09367801  0.36415720    -0.66000
Ni137      Ni  0.80494220  0.18283330  0.41892888     1.34900
C138        C  0.85788730  0.08628316  0.38269132     0.85100
O139        O  0.75651637  0.15282310  0.37389679    -0.79000
O140        O  0.74555817  0.15186236  0.40759795    -0.89200
C141        C  0.82232484  0.15783658  0.32857387     0.84700
O142        O  0.81750364  0.23745909  0.40573021    -0.67500
O143        O  0.94505229  0.15798312  0.36472720    -0.86700
C144        C  0.83168577  0.25429919  0.38818440     0.85500
C145        C  0.73116750  0.14527848  0.38948704     1.07100
H146        H  0.89913877  0.21645383  0.36336080     0.38900
O147        O  0.88080725  0.18532400  0.36763253    -1.09400
O148        O  0.87622523  0.11802970  0.39549423    -0.66000
Ni149      Ni  0.88982631  0.18037605  0.39566834     1.26300
O150        O  0.83716678  0.23266134  0.37377450    -0.66300
O151        O  0.95262841  0.20080982  0.39165839    -0.78600
C152        C  0.89116740  0.20364330  0.43606310     0.84900
O153        O  0.89771263  0.17847972  0.42407474    -0.65700
Ni154      Ni  0.89275086  0.14857712  0.34976901     1.27400
Ni155      Ni  0.81898161  0.16967606  0.37050296     1.26100
H156        H  0.81059181  0.12738020  0.40027307     0.39400
O157        O  0.71475961  0.82211043  0.83069044    -0.80500
O158        O  0.71471052  0.79195533  0.92568434    -0.65200
O159        O  0.69695211  0.77932900  0.86847378    -1.11800
C160        C  0.58499162  0.82024710  0.88419079     1.06400
O161        O  0.64112887  0.75270739  0.93217046    -0.78400
O162        O  0.57801576  0.72682476  0.90334401    -0.66000
Ni163      Ni  0.74871965  0.81361864  0.85128677     1.34900
C164        C  0.57665985  0.71092006  0.88581131     0.85100
O165        O  0.75105471  0.76710363  0.89597442    -0.79000
O166        O  0.79003940  0.80813259  0.86904723    -0.89200
C167        C  0.68171064  0.76725366  0.93745639     0.84700
O168        O  0.76171408  0.86950539  0.86291465    -0.67500
O169        O  0.58836794  0.81129148  0.90262947    -0.86700
C170        C  0.76962793  0.88014811  0.88141187     0.85500
C171        C  0.78611169  0.78453051  0.88463989     1.07100
H172        H  0.67990388  0.83877487  0.89852644     0.38900
O173        O  0.66449053  0.80649868  0.89665312    -1.09400
O174        O  0.60441506  0.73362145  0.87154370    -0.66000
Ni175      Ni  0.65117992  0.79636136  0.86850991     1.26300
O176        O  0.75596924  0.85047593  0.89553981    -0.66300
O177        O  0.60626249  0.81453936  0.86949776    -0.78600
C178        C  0.67348626  0.80690747  0.82660600     0.84900
O179        O  0.64188275  0.78838297  0.83983689    -0.65700
Ni180      Ni  0.61668263  0.78267988  0.91629685     1.27400
Ni181      Ni  0.70795362  0.78713570  0.89692585     1.26100
H182        H  0.68391616  0.74776088  0.86522390     0.39400
O183        O  0.80571574  0.65318031  0.17632733    -0.80500
O184        O  0.81902048  0.70724966  0.08325281    -0.65200
O185        O  0.77926292  0.66041680  0.13680432    -1.11800
C186        C  0.81127713  0.54748542  0.11266429     1.06400
O187        O  0.77364884  0.64040301  0.07003325    -0.78400
O188        O  0.72983471  0.56252735  0.09221322    -0.66000
Ni189      Ni  0.80593705  0.69925617  0.15945415     1.34900
C190        C  0.70992268  0.55391108  0.10940468     0.85100
O191        O  0.78694859  0.73307316  0.11404821    -0.79000
O192        O  0.80785406  0.75057434  0.14617469    -0.89200
C193        C  0.79560583  0.68338002  0.06868091     0.84700
O194        O  0.86604206  0.71733559  0.15108065    -0.67500
O195        O  0.80819812  0.56003471  0.09480847    -0.86700
C196        C  0.88510575  0.73305328  0.13406023     0.85500
C197        C  0.79641096  0.75896335  0.12915727     1.07100
H198        H  0.84561102  0.65070992  0.10698486     0.38900
O199        O  0.81325877  0.63824717  0.10720847    -1.09400
O200        O  0.72987850  0.57274978  0.12561801    -0.66000
Ni201      Ni  0.79145391  0.61183644  0.13327315     1.26300
O202        O  0.86319484  0.72674555  0.11775486    -0.66300
O203        O  0.80492287  0.56431861  0.12878642    -0.78600
C204        C  0.78523192  0.61027929  0.17606942     0.84900
O205        O  0.77067560  0.58798980  0.15991660    -0.65700
Ni206      Ni  0.79131061  0.60143800  0.08365103     1.27400
Ni207      Ni  0.80063407  0.68602548  0.11034161     1.26100
H208        H  0.74706481  0.64871946  0.13762617     0.34600
O209        O  0.30376584  0.12727584  0.17358379    -0.80500
O210        O  0.27206643  0.08332980  0.07983228    -0.65200
O211        O  0.30798142  0.09504950  0.13489508    -1.11800
C212        C  0.41964237  0.24264760  0.11194680     1.06400
O213        O  0.34201368  0.11099383  0.06813472    -0.78400
O214        O  0.41440814  0.14836820  0.09294082    -0.66000
Ni215      Ni  0.26252789  0.08139490  0.15545406     1.34900
C216        C  0.42123669  0.13839897  0.11056491     0.85100
O217        O  0.24355577  0.02655781  0.11089521    -0.79000
O218        O  0.21502335  0.03156856  0.14071698    -0.89200
C219        C  0.29945545  0.08700934  0.06585788     0.84700
O220        O  0.24548559  0.12248375  0.14504478    -0.67500
O221        O  0.41131208  0.22650399  0.09406692    -0.86700
C222        C  0.23291557  0.12347435  0.12716366     0.85500
C223        C  0.21255204  0.01063517  0.12437251     1.07100
H224        H  0.31921199  0.16819600  0.10370775     0.38900
O225        O  0.33361064  0.15021268  0.10486402    -1.09400
O226        O  0.39900116  0.13851005  0.12622662    -0.66000
Ni227      Ni  0.35495099  0.15707672  0.13187428     1.26300
O228        O  0.24322799  0.10666540  0.11216802    -0.66300
O229        O  0.40068663  0.21929569  0.12790643    -0.78600
C230        C  0.34644625  0.15244032  0.17485385     0.84900
O231        O  0.37290700  0.16225448  0.15958287    -0.65700
Ni232      Ni  0.37511845  0.16773686  0.08242670     1.27400
Ni233      Ni  0.28823546  0.08847573  0.10753267     1.26100
H234        H  0.32102899  0.07611149  0.13709303     0.39400
O235        O  0.16413150  0.83517102  0.83265644    -0.80500
O236        O  0.21427183  0.90062736  0.92261074    -0.65200
O237        O  0.21817351  0.88092569  0.86586799    -1.11800
C238        C  0.19284525  0.73720380  0.88831141     1.06400
O239        O  0.25813886  0.87216460  0.92956062    -0.78400
O240        O  0.28332026  0.83036702  0.90225855    -0.66000
Ni241      Ni  0.17755801  0.88738217  0.84865145     1.34900
C242        C  0.29747249  0.84333886  0.88425000     0.85100
O243        O  0.22810328  0.95232598  0.89006249    -0.79000
O244        O  0.18737915  0.94148409  0.86222732    -0.89200
C245        C  0.24202246  0.89748628  0.93403412     0.84700
O246        O  0.12445536  0.85059056  0.86450665    -0.67500
O247        O  0.20110786  0.75354521  0.90614869    -0.86700
C248        C  0.11837527  0.85367893  0.88328029     0.85500
C249        C  0.20960069  0.96545675  0.87724549     1.07100
H250        H  0.16799194  0.81159682  0.89969113     0.38900
O251        O  0.19995903  0.82990157  0.89674380    -1.09400
O252        O  0.27257905  0.84430929  0.87034156    -0.66000
Ni253      Ni  0.20816726  0.82103177  0.86877805     1.26300
O254        O  0.15084895  0.87229517  0.89555113    -0.66300
O255        O  0.19663135  0.76035558  0.87250853    -0.78600
C256        C  0.18767808  0.81725473  0.82781749     0.84900
O257        O  0.21443278  0.81476230  0.84018275    -0.65700
Ni258      Ni  0.22857192  0.81365656  0.91681493     1.27400
Ni259      Ni  0.21455231  0.89137601  0.89409719     1.26100
H260        H  0.24865220  0.90095237  0.86097613     0.39400
O261        O  0.14550800  0.29580522  0.83128460    -0.80500
O262        O  0.10317360  0.27558981  0.92631430    -0.65200
O263        O  0.11342683  0.30435154  0.86977011    -1.11800
C264        C  0.26461210  0.41531101  0.88727609     1.06400
O265        O  0.13671099  0.34778543  0.93467029    -0.78400
O266        O  0.17700838  0.41677964  0.90788578    -0.66000
Ni267      Ni  0.09785850  0.25785742  0.85028039     1.34900
C268        C  0.16317227  0.42099707  0.89074049     0.85100
O269        O  0.04512560  0.24277592  0.89630459    -0.79000
O270        O  0.04644018  0.21400564  0.86607836    -0.89200
C271        C  0.10864047  0.30646943  0.93855897     0.84700
O272        O  0.13605082  0.23810968  0.86134433    -0.67500
O273        O  0.25114391  0.40697018  0.90576061    -0.86700
C274        C  0.13818134  0.22733949  0.87952105     0.85500
C275        C  0.02693165  0.21242642  0.88293213     1.07100
H276        H  0.18785363  0.31641344  0.89913912     0.38900
O277        O  0.17070566  0.33172722  0.89817066    -1.09400
O278        O  0.15820828  0.39546693  0.87581209    -0.66000
Ni279      Ni  0.17579259  0.35083062  0.87062138     1.26300
O280        O  0.12404372  0.24062018  0.89454728    -0.66300
O281        O  0.23865051  0.39669496  0.87231202    -0.78600
C282        C  0.16840970  0.33824608  0.82820255     0.84900
O283        O  0.17827639  0.36627709  0.84251677    -0.65700
Ni284      Ni  0.19284430  0.37542203  0.91914202     1.27400
Ni285      Ni  0.10782615  0.28735578  0.89778287     1.26100
H286        H  0.09478825  0.31769098  0.86745988     0.39400
O287        O  0.83604627  0.14245138  0.16997711    -0.80500
O288        O  0.89497625  0.16314817  0.08028119    -0.65200
O289        O  0.87954824  0.19012613  0.13468184    -1.11800
C290        C  0.73481297  0.15730112  0.11153028     1.06400
O291        O  0.86995828  0.20643652  0.06774266    -0.78400
O292        O  0.83469808  0.24528197  0.09272370    -0.66000
Ni293      Ni  0.89374977  0.16361430  0.15673736     1.34900
C294        C  0.84054489  0.26077498  0.11060208     0.85100
O295        O  0.94948326  0.18986553  0.11185498    -0.79000
O296        O  0.95293060  0.18213939  0.14547752    -0.89200
C297        C  0.89307853  0.18664627  0.06596238     0.84700
O298        O  0.87069302  0.10448265  0.14621073    -0.67500
O299        O  0.75319993  0.16684079  0.09382259    -0.86700
C300        C  0.86181146  0.08849014  0.12848488     0.85500
C301        C  0.97042124  0.18987012  0.12765780     1.07100
H302        H  0.80824073  0.12851863  0.10323563     0.38900
O303        O  0.82689122  0.16082196  0.10460573    -1.09400
O304        O  0.83631124  0.23731430  0.12630064    -0.66000
Ni305      Ni  0.81780414  0.17488491  0.13163927     1.26300
O306        O  0.86723426  0.11244952  0.11287295    -0.66300
O307        O  0.75587145  0.15840798  0.12751389    -0.78600
C308        C  0.81641708  0.16493209  0.17355216     0.84900
O309        O  0.81118605  0.18711623  0.15952376    -0.65700
Ni310      Ni  0.81254609  0.18609631  0.08215397     1.27400
Ni311      Ni  0.88817647  0.17543018  0.10778359     1.26100
H312        H  0.89804409  0.22244068  0.13608533     0.39400
C313        C  0.95758141  0.22991302  0.01453711     0.19000
C314        C  0.97945252  0.27250728  0.00509101    -0.19000
C315        C  0.00805356  0.28109085  0.98821923    -0.11300
C316        C  0.01530250  0.24703078  0.98021704     0.21300
C317        C  0.99211178  0.20391907  0.98920392    -0.20700
C318        C  0.96380283  0.19544408  0.00623832    -0.11500
C319        C  0.04533282  0.25510256  0.96210482    -0.15700
C320        C  0.08059896  0.29612946  0.95731740    -0.29500
C321        C  0.92792534  0.22257997  0.03267350    -0.03800
C322        C  0.92020415  0.19204002  0.04731586    -0.40300
H323        H  0.97468104  0.29945120  0.01089977     0.12400
H324        H  0.02372505  0.31426071  0.98129299     0.12100
H325        H  0.99623385  0.17678415  0.98312981     0.11500
H326        H  0.94637009  0.16173483  0.01264733     0.11800
H327        H  0.03843855  0.22650326  0.95260537     0.14500
H328        H  0.08876302  0.32436375  0.96725141     0.13300
H329        H  0.91424286  0.24496766  0.03463040     0.10900
H330        H  0.93615676  0.17154795  0.04620861     0.13000
C331        C  0.15559869  0.52817523  0.90113864     0.19000
C332        C  0.16770550  0.55363522  0.88305555    -0.19000
C333        C  0.17173496  0.59646833  0.88265611    -0.11300
C334        C  0.16362968  0.61460296  0.90033977     0.21300
C335        C  0.15029039  0.58842670  0.91814301    -0.20700
C336        C  0.14646318  0.54590354  0.91855081    -0.11500
C337        C  0.17244446  0.66177198  0.90162540    -0.15700
C338        C  0.17919683  0.68905979  0.88565060    -0.29500
C339        C  0.15699670  0.48566607  0.90321726    -0.03800
C340        C  0.15432662  0.45876421  0.88774834    -0.40300
H341        H  0.17622310  0.54167136  0.86945919     0.12400
H342        H  0.18307859  0.61575932  0.86871548     0.12100
H343        H  0.14402334  0.60147478  0.93201427     0.11500
H344        H  0.13742922  0.52722834  0.93271889     0.11800
H345        H  0.17445542  0.67506404  0.91676312     0.14500
H346        H  0.17572647  0.67656674  0.87031772     0.13300
H347        H  0.16156035  0.47669786  0.91842742     0.10900
H348        H  0.14756882  0.46554896  0.87254867     0.13000
C349        C  0.18013200  0.14315201  0.86869504     0.19000
C350        C  0.18367031  0.12461600  0.85027717    -0.19000
C351        C  0.18974623  0.08735774  0.84989233    -0.11300
C352        C  0.19331088  0.06789119  0.86789498     0.21300
C353        C  0.19128021  0.08702340  0.88648607    -0.20700
C354        C  0.18463799  0.12437209  0.88689686    -0.11500
C355        C  0.19498632  0.02551652  0.86627664    -0.15700
C356        C  0.21228763  0.00973756  0.88011959    -0.29500
C357        C  0.16992144  0.18057770  0.86764254    -0.03800
C358        C  0.15583316  0.19626294  0.88321756    -0.40300
H359        H  0.18041746  0.13823026  0.83601072     0.12400
H360        H  0.19100198  0.07321393  0.83537718     0.12100
H361        H  0.19318634  0.07232564  0.90066668     0.11500
H362        H  0.18255851  0.13785911  0.90141576     0.11800
H363        H  0.18155568  0.00648489  0.85245399     0.14500
H364        H  0.22780893  0.02889644  0.89366559     0.13300
H365        H  0.17087841  0.19377443  0.85256792     0.10900
H366        H  0.15383135  0.18387256  0.89851180     0.13000
C367        C  0.25884369  0.97906765  0.97795422     0.19000
C368        C  0.23009629  0.98971138  0.98902980    -0.19000
C369        C  0.24505941  0.01587356  0.00656338    -0.11300
C370        C  0.28944373  0.03228227  0.01333140     0.21300
C371        C  0.31854344  0.02277780  0.00185752    -0.20700
C372        C  0.30352332  0.99647142  0.98441730    -0.11500
C373        C  0.30718471  0.06007002  0.03192659    -0.15700
C374        C  0.28080892  0.06086180  0.04710781    -0.29500
C375        C  0.24177633  0.95102396  0.95943355    -0.03800
C376        C  0.25828619  0.92503835  0.95252922    -0.40300
H377        H  0.19579975  0.97746124  0.98417252     0.12400
H378        H  0.22190767  0.02360113  0.01450023     0.12100
H379        H  0.35308907  0.03557272  0.00647591     0.11500
H380        H  0.32727971  0.99051404  0.97589103     0.11800
H381        H  0.34364423  0.07914154  0.03357738     0.14500
H382        H  0.24432634  0.04057527  0.04628795     0.13300
H383        H  0.21377379  0.95056890  0.95167604     0.10900
H384        H  0.28434127  0.92307211  0.96086107     0.13000
C385        C  0.08204293  0.19127729  0.13805065     0.19000
C386        C  0.09021970  0.17176168  0.12090337    -0.19000
C387        C  0.12610975  0.16297987  0.12046823    -0.11300
C388        C  0.15475075  0.17363396  0.13717995     0.21300
C389        C  0.14731605  0.19450831  0.15394988    -0.20700
C390        C  0.11134939  0.20298876  0.15442344    -0.11500
C391        C  0.18984198  0.16005736  0.13877883    -0.15700
C392        C  0.20329470  0.14281360  0.12359764    -0.29500
C393        C  0.04049994  0.19475249  0.14043032    -0.03800
C394        C  0.01650226  0.19654889  0.12482988    -0.40300
H395        H  0.06764170  0.16101026  0.10821519     0.12400
H396        H  0.12977229  0.14612416  0.10736248     0.12100
H397        H  0.16855771  0.20296807  0.16708612     0.11500
H398        H  0.10565296  0.21765355  0.16789633     0.11800
H399        H  0.20404811  0.16273377  0.15366061     0.14500
H400        H  0.19101370  0.14071600  0.10839276     0.13300
H401        H  0.02815634  0.19377268  0.15579704     0.10900
H402        H  0.02932075  0.19958518  0.10942906     0.13000
C403        C  0.52765483  0.12805523  0.09909070     0.19000
C404        C  0.55046742  0.13375334  0.11740246    -0.19000
C405        C  0.59320718  0.13720990  0.11750542    -0.11300
C406        C  0.61414913  0.13504391  0.09929407     0.21300
C407        C  0.59060755  0.12802101  0.08119748    -0.20700
C408        C  0.54811714  0.12459243  0.08109693    -0.11500
C409        C  0.66136966  0.14304961  0.09798341    -0.15700
C410        C  0.68666221  0.14521561  0.11390386    -0.29500
C411        C  0.48502105  0.12990481  0.09751661    -0.03800
C412        C  0.45840081  0.12826460  0.11323429    -0.40300
H413        H  0.53652472  0.13743237  0.13159516     0.12400
H414        H  0.61015507  0.14327302  0.13179484     0.12100
H415        H  0.60565075  0.12625100  0.06691362     0.11500
H416        H  0.53166066  0.12039434  0.06673156     0.11800
H417        H  0.67643059  0.14826031  0.08289905     0.14500
H418        H  0.67248383  0.13896738  0.12914074     0.13300
H419        H  0.47612882  0.13483689  0.08238704     0.10900
H420        H  0.46534757  0.12215300  0.12849832     0.13000
C421        C  0.00543797  0.83074924  0.12336557     0.19000
C422        C  0.03424965  0.85311672  0.10676016    -0.19000
C423        C  0.07718379  0.89082573  0.10964650    -0.11300
C424        C  0.09190863  0.90717576  0.12928250     0.21300
C425        C  0.06295117  0.88489341  0.14581379    -0.20700
C426        C  0.02036021  0.84720960  0.14295285    -0.11500
C427        C  0.13548204  0.94904720  0.13322145    -0.15700
C428        C  0.17126318  0.96703043  0.12033622    -0.29500
C429        C  0.95845709  0.79342167  0.11993198    -0.03800
C430        C  0.93472098  0.76187026  0.13416860    -0.40300
H431        H  0.02322255  0.84179373  0.09150278     0.12400
H432        H  0.09787996  0.90784895  0.09644100     0.12100
H433        H  0.07303201  0.89718019  0.16105156     0.11500
H434        H  0.99860600  0.83233766  0.15612297     0.11800
H435        H  0.13814393  0.96575886  0.14755517     0.14500
H436        H  0.17014856  0.95020105  0.10625624     0.13300
H437        H  0.94215106  0.79389531  0.10602609     0.10900
H438        H  0.95137347  0.76063509  0.14780550     0.13000
C439        C  0.51323190  0.36538860  0.09930365     0.19000
C440        C  0.53961914  0.38306854  0.11668759    -0.19000
C441        C  0.57932298  0.42521970  0.11595898    -0.11300
C442        C  0.59358823  0.45064738  0.09784559     0.21300
C443        C  0.56658903  0.43352125  0.08072773    -0.20700
C444        C  0.52685246  0.39157395  0.08147306    -0.11500
C445        C  0.63858194  0.49229512  0.09561008    -0.15700
C446        C  0.66174091  0.51851409  0.11124321    -0.29500
C447        C  0.47411560  0.31846996  0.09832546    -0.03800
C448        C  0.45414067  0.29085945  0.11441851    -0.40300
H449        H  0.53118274  0.36387617  0.13063822     0.12400
H450        H  0.59984021  0.43651421  0.12932908     0.12100
H451        H  0.57691429  0.45214557  0.06654566     0.11500
H452        H  0.50743353  0.37885859  0.06781352     0.11800
H453        H  0.65396005  0.50052843  0.08054283     0.14500
H454        H  0.64618732  0.51179251  0.12624041     0.13300
H455        H  0.46213950  0.30544806  0.08329587     0.10900
H456        H  0.46380521  0.30301834  0.12970452     0.13000
C457        C  0.80348232  0.87296950  0.14046582     0.19000
C458        C  0.82341423  0.90070348  0.12329200    -0.19000
C459        C  0.83226022  0.94530947  0.12311269    -0.11300
C460        C  0.82122431  0.96302744  0.14009350     0.21300
C461        C  0.80035161  0.93487047  0.15698079    -0.20700
C462        C  0.79167002  0.89043914  0.15717840    -0.11500
C463        C  0.83441066  0.01141431  0.14163828    -0.15700
C464        C  0.84520759  0.03980421  0.12572016    -0.29500
C465        C  0.79883969  0.82760225  0.14237024    -0.03800
C466        C  0.79585491  0.80156577  0.12652106    -0.40300
H467        H  0.83426470  0.88889557  0.11036302     0.12400
H468        H  0.84955172  0.96616525  0.11002354     0.12100
H469        H  0.79174454  0.94765977  0.17031169     0.11500
H470        H  0.77662996  0.86994125  0.17065259     0.11800
H471        H  0.83554650  0.02432717  0.15679109     0.14500
H472        H  0.84212626  0.02750061  0.11036164     0.13300
H473        H  0.79822279  0.81529613  0.15760343     0.10900
H474        H  0.79349187  0.81177548  0.11124916     0.13000
C475        C  0.83903887  0.45299600  0.10027183     0.19000
C476        C  0.82925418  0.42574965  0.11771766    -0.19000
C477        C  0.83479254  0.38785050  0.11749219    -0.11300
C478        C  0.85017476  0.37629029  0.09981766     0.21300
C479        C  0.86058563  0.40395074  0.08259701    -0.20700
C480        C  0.85514937  0.44175764  0.08282698    -0.11500
C481        C  0.85091576  0.33331368  0.09785618    -0.15700
C482        C  0.84999290  0.30764344  0.11353916    -0.29500
C483        C  0.83032881  0.49147014  0.09899364    -0.03800
C484        C  0.82222738  0.51098350  0.11502227    -0.40300
H485        H  0.81568048  0.43229237  0.13135256     0.12400
H486        H  0.82502180  0.36675044  0.13090694     0.12100
H487        H  0.87200964  0.39567556  0.06870441     0.11500
H488        H  0.86274992  0.46184220  0.06912785     0.11800
H489        H  0.84994926  0.32117823  0.08255738     0.14500
H490        H  0.85253475  0.31953692  0.12895145     0.13300
H491        H  0.83051854  0.50430611  0.08392705     0.10900
H492        H  0.82335011  0.50016462  0.13030805     0.13000
C493        C  0.38872891  0.50998330  0.89534678     0.19000
C494        C  0.41701510  0.52268521  0.91213865    -0.19000
C495        C  0.45847320  0.56280757  0.91197156    -0.11300
C496        C  0.47317519  0.59144618  0.89496568     0.21300
C497        C  0.44600565  0.57809116  0.87767890    -0.20700
C498        C  0.40405897  0.53770876  0.87787162    -0.11500
C499        C  0.51397316  0.63687413  0.89711114    -0.15700
C500        C  0.53991331  0.66405126  0.88179139    -0.29500
C501        C  0.34214732  0.47045142  0.89786597    -0.03800
C502        C  0.31255500  0.44978100  0.88287237    -0.40300
H503        H  0.40626053  0.50223636  0.92581475     0.12400
H504        H  0.47855365  0.57225974  0.92552007     0.12100
H505        H  0.45583898  0.59978388  0.86444279     0.11500
H506        H  0.38306105  0.52967322  0.86471668     0.11800
H507        H  0.52289693  0.64877228  0.91253639     0.14500
H508        H  0.53359452  0.65239414  0.86626408     0.13300
H509        H  0.33109166  0.45863961  0.91330717     0.10900
H510        H  0.32272963  0.45945755  0.86720033     0.13000
C511        C  0.91499314  0.10096436  0.87476112     0.19000
C512        C  0.90665304  0.07302638  0.89180847    -0.19000
C513        C  0.87134564  0.02789206  0.89180512    -0.11300
C514        C  0.84368396  0.01004231  0.87476531     0.21300
C515        C  0.85071271  0.03897087  0.85833910    -0.20700
C516        C  0.88594457  0.08366629  0.85830061    -0.11500
C517        C  0.81039729  0.96109137  0.87223242    -0.15700
C518        C  0.79750390  0.92865925  0.88658065    -0.29500
C519        C  0.95680092  0.14558025  0.87214594    -0.03800
C520        C  0.98198581  0.17233446  0.88728078    -0.40300
H521        H  0.92890592  0.08500347  0.90461562     0.12400
H522        H  0.86749794  0.00685581  0.90472514     0.12100
H523        H  0.83003876  0.02641343  0.84501687     0.11500
H524        H  0.89164433  0.10434661  0.84495270     0.11800
H525        H  0.79705426  0.95088001  0.85711307     0.14500
H526        H  0.80862622  0.93720073  0.90204492     0.13300
H527        H  0.96812676  0.15646478  0.85662870     0.10900
H528        H  0.97029951  0.16421225  0.90290867     0.13000
C529        C  0.41943195  0.86766250  0.89126487     0.19000
C530        C  0.42956296  0.84761035  0.87492447    -0.19000
C531        C  0.46863386  0.84396927  0.87502149    -0.11300
C532        C  0.49827726  0.86038482  0.89145588     0.21300
C533        C  0.48919730  0.88248982  0.90714884    -0.20700
C534        C  0.45029192  0.88603793  0.90706436    -0.11500
C535        C  0.53536860  0.85023829  0.89426664    -0.15700
C536        C  0.55353632  0.83677588  0.87950764    -0.29500
C537        C  0.37456177  0.86415288  0.89405586    -0.03800
C538        C  0.34481194  0.85601338  0.87923295    -0.40300
H539        H  0.40611460  0.83214496  0.86270515     0.12400
H540        H  0.47383698  0.82587322  0.86283485     0.12100
H541        H  0.51128897  0.89534099  0.92001784     0.11500
H542        H  0.44325126  0.90144582  0.91989085     0.11800
H543        H  0.54724493  0.85250578  0.90962752     0.14500
H544        H  0.54448089  0.83661811  0.86383474     0.13300
H545        H  0.36463711  0.86631319  0.90955708     0.10900
H546        H  0.35441260  0.85647214  0.86345952     0.13000
C547        C  0.99107114  0.81032475  0.88485663     0.19000
C548        C  0.95118036  0.77262343  0.87823630    -0.19000
C549        C  0.90968244  0.77135779  0.88008154    -0.11300
C550        C  0.90782256  0.80844182  0.88806242     0.21300
C551        C  0.94745553  0.84559888  0.89508696    -0.20700
C552        C  0.98861186  0.84638270  0.89374274    -0.11500
C553        C  0.86704509  0.81251051  0.88613067    -0.15700
C554        C  0.82467857  0.77857900  0.88966280    -0.29500
C555        C  0.03543795  0.81458056  0.87974945    -0.03800
C556        C  0.07221406  0.83839543  0.89109058    -0.40300
H557        H  0.95240172  0.74482159  0.87102848     0.12400
H558        H  0.87968344  0.74279428  0.87408950     0.12100
H559        H  0.94681871  0.87484659  0.90093532     0.11500
H560        H  0.01885887  0.87653704  0.89843328     0.11800
H561        H  0.87230044  0.84525256  0.88141979     0.14500
H562        H  0.81854656  0.74677900  0.89609369     0.13300
H563        H  0.03850106  0.80026370  0.86552671     0.10900
H564        H  0.06879381  0.85030066  0.90589974     0.13000
C565        C  0.75289938  0.70656359  0.01863453     0.19000
C566        C  0.70975911  0.68641936  0.01023771    -0.19000
C567        C  0.70163324  0.70455179  0.99292940    -0.11300
C568        C  0.73671074  0.74351481  0.98341979     0.21300
C569        C  0.78003587  0.76362389  0.99179716    -0.20700
C570        C  0.78810019  0.74553929  0.00924966    -0.11500
C571        C  0.73000541  0.76223840  0.96415638    -0.15700
C572        C  0.68905569  0.75228013  0.95736410    -0.29500
C573        C  0.75988348  0.68445026  0.03653591    -0.03800
C574        C  0.79202806  0.70641072  0.05039143    -0.40300
H575        H  0.68215763  0.65610152  0.01701014     0.12400
H576        H  0.66807901  0.68677750  0.98679201     0.12100
H577        H  0.80788768  0.79321188  0.98468870     0.11500
H578        H  0.82208375  0.76140392  0.01498165     0.11800
H579        H  0.75986688  0.78464445  0.95515263     0.14500
H580        H  0.65896722  0.73155424  0.96648326     0.13300
H581        H  0.73573068  0.64885300  0.03900271     0.10900
H582        H  0.81463244  0.74257045  0.04898856     0.13000
C583        C  0.78810626  0.13069091  0.22962869     0.19000
C584        C  0.80020679  0.17002680  0.24084345    -0.19000
C585        C  0.80370047  0.16962380  0.26198873    -0.11300
C586        C  0.79535190  0.12997285  0.27215733     0.21300
C587        C  0.78109052  0.09044738  0.26101391    -0.20700
C588        C  0.77723996  0.09073086  0.24005807    -0.11500
C589        C  0.80648176  0.12946437  0.29372348    -0.15700
C590        C  0.80608938  0.15746899  0.30790667    -0.29500
C591        C  0.79332679  0.13075250  0.20725532    -0.03800
C592        C  0.79937756  0.16399938  0.19441442    -0.40300
H593        H  0.80966632  0.20167047  0.23333937     0.12400
H594        H  0.81565289  0.20092107  0.27011559     0.12100
H595        H  0.77457869  0.05953581  0.26847250     0.11500
H596        H  0.76801212  0.05999044  0.23183878     0.11800
H597        H  0.81563761  0.10451879  0.29808173     0.14500
H598        H  0.79438792  0.18077896  0.30428710     0.13300
H599        H  0.79552027  0.10244113  0.20107626     0.10900
H600        H  0.79477628  0.19163172  0.19941274     0.13000
C601        C  0.19399923  0.33654952  0.77091570     0.19000
C602        C  0.18194506  0.36447998  0.76024731    -0.19000
C603        C  0.18242436  0.36485610  0.73889153    -0.11300
C604        C  0.19506644  0.33737790  0.72799530     0.21300
C605        C  0.20967936  0.31193209  0.73878934    -0.20700
C606        C  0.20907470  0.31145767  0.75989939    -0.11500
C607        C  0.18642367  0.32767678  0.70602207    -0.15700
C608        C  0.18305670  0.35433725  0.69193168    -0.29500
C609        C  0.18493272  0.32672958  0.79299734    -0.03800
C610        C  0.18380467  0.35467898  0.80710725    -0.40300
H611        H  0.16933164  0.38358140  0.76829323     0.12400
H612        H  0.17010139  0.38417745  0.73105152     0.12100
H613        H  0.21939301  0.29031295  0.73084324     0.11500
H614        H  0.21839927  0.28955794  0.76767833     0.11800
H615        H  0.18090038  0.29490935  0.70124478     0.14500
H616        H  0.19134963  0.38855247  0.69551364     0.13300
H617        H  0.17821744  0.29357795  0.79788277     0.10900
H618        H  0.19328587  0.38909428  0.80312506     0.13000
C619        C  0.97851067  0.23028520  0.47785289     0.19000
C620        C  0.99391586  0.20493754  0.48817572    -0.19000
C621        C  0.02089983  0.22238482  0.50524506    -0.11300
C622        C  0.03338669  0.26591679  0.51223525     0.21300
C623        C  0.01921985  0.29178461  0.50145927    -0.20700
C624        C  0.99199421  0.27421784  0.48450525    -0.11500
C625        C  0.06179988  0.28598747  0.53035870    -0.15700
C626        C  0.06507979  0.26133062  0.54538937    -0.29500
C627        C  0.94972522  0.21067645  0.45984599    -0.03800
C628        C  0.91892293  0.22188728  0.45427941    -0.40300
H629        H  0.98472719  0.17136067  0.48310657     0.12400
H630        H  0.03239675  0.20191084  0.51264786     0.12100
H631        H  0.02897731  0.32566609  0.50627632     0.11500
H632        H  0.98218519  0.29540692  0.47648304     0.11800
H633        H  0.07892370  0.32246249  0.53184386     0.14500
H634        H  0.04643016  0.22477054  0.54476066     0.13300
H635        H  0.95299306  0.18525232  0.45133508     0.10900
H636        H  0.91356196  0.24526384  0.46338047     0.13000
C637        C  0.20527306  0.78676315  0.77370862     0.19000
C638        C  0.24185875  0.81009197  0.76008410    -0.19000
C639        C  0.23447665  0.80996745  0.73922081    -0.11300
C640        C  0.19030829  0.78649652  0.73174688     0.21300
C641        C  0.15434650  0.76034828  0.74515881    -0.20700
C642        C  0.16178047  0.75971798  0.76584668    -0.11500
C643        C  0.17985592  0.79449857  0.71099672    -0.15700
C644        C  0.20491637  0.79835795  0.69440950    -0.29500
C645        C  0.21210534  0.79548100  0.79588626    -0.03800
C646        C  0.18043343  0.79773924  0.80737491    -0.40300
H647        H  0.27572852  0.83091103  0.76569434     0.12400
H648        H  0.26277918  0.83080873  0.72919374     0.12100
H649        H  0.12008250  0.74176638  0.73970578     0.11500
H650        H  0.13299645  0.73977879  0.77577332     0.11800
H651        H  0.15005694  0.79782050  0.70939198     0.14500
H652        H  0.23258777  0.79149265  0.69531916     0.13300
H653        H  0.24528328  0.80667425  0.80207661     0.10900
H654        H  0.14914777  0.79115725  0.80045444     0.13000
C655        C  0.14819174  0.60100592  0.59949716     0.19000
C656        C  0.14678638  0.57861125  0.61762410    -0.19000
C657        C  0.14105896  0.53504874  0.61716767    -0.11300
C658        C  0.13663663  0.51305635  0.59856858     0.21300
C659        C  0.13700311  0.53521702  0.58066001    -0.20700
C660        C  0.14280265  0.57849294  0.58111387    -0.11500
C661        C  0.13561289  0.46919857  0.59656545    -0.15700
C662        C  0.13535116  0.44340152  0.61202708    -0.29500
C663        C  0.15730545  0.64832020  0.59856261    -0.03800
C664        C  0.15715975  0.67279886  0.61452402    -0.40300
H665        H  0.15142685  0.59483576  0.63212942     0.12400
H666        H  0.14152278  0.51966456  0.63135980     0.12100
H667        H  0.13389950  0.51941285  0.56609960     0.11500
H668        H  0.14376764  0.59475994  0.56690541     0.11800
H669        H  0.13830320  0.45911528  0.58123093     0.14500
H670        H  0.13221115  0.45173328  0.62757112     0.13300
H671        H  0.16457320  0.66392016  0.58361880     0.10900
H672        H  0.14930613  0.65836018  0.62965603     0.13000
C673        C  0.16714063  0.13119125  0.63530719     0.19000
C674        C  0.17203994  0.11356217  0.65363301    -0.19000
C675        C  0.17648230  0.07531473  0.65394709    -0.11300
C676        C  0.17668499  0.05379191  0.63593326     0.21300
C677        C  0.17307243  0.07193007  0.61739603    -0.20700
C678        C  0.16839668  0.11035794  0.61707613    -0.11500
C679        C  0.17770953  0.01109164  0.63758752    -0.15700
C680        C  0.18852112  0.99181420  0.62239592    -0.29500
C681        C  0.15866597  0.16973735  0.63646525    -0.03800
C682        C  0.14502208  0.18548388  0.62104096    -0.40300
H683        H  0.17126489  0.12877573  0.66791267     0.12400
H684        H  0.17912594  0.06207631  0.66843321     0.12100
H685        H  0.17238994  0.05590484  0.60319012     0.11500
H686        H  0.16521217  0.12296018  0.60257666     0.11800
H687        H  0.16947299  0.99484963  0.65240717     0.14500
H688        H  0.19888039  0.00797641  0.60762823     0.13300
H689        H  0.16058403  0.18380769  0.65142023     0.10900
H690        H  0.14209280  0.17224196  0.60589284     0.13000
C691        C  0.35521773  0.19354270  0.27384418     0.19000
C692        C  0.32792459  0.20551634  0.26291773    -0.19000
C693        C  0.32538335  0.20156009  0.24192084    -0.11300
C694        C  0.35038587  0.18593371  0.23113335     0.21300
C695        C  0.38050420  0.17703868  0.24175490    -0.20700
C696        C  0.38283860  0.18070686  0.26301289    -0.11500
C697        C  0.33821430  0.17290881  0.20967501    -0.15700
C698        C  0.36510372  0.17063238  0.19511453    -0.29500
C699        C  0.34761437  0.18819554  0.29620235    -0.03800
C700        C  0.37339063  0.18222337  0.30968311    -0.40300
H701        H  0.30631679  0.21553261  0.27077097     0.12400
H702        H  0.30193433  0.20864131  0.23415021     0.12100
H703        H  0.39974514  0.16426017  0.23389279     0.11500
H704        H  0.40386863  0.17062198  0.27089894     0.11800
H705        H  0.30414688  0.16441667  0.20565528     0.14500
H706        H  0.40030780  0.18187162  0.19805024     0.13300
H707        H  0.31668344  0.18642838  0.30180689     0.10900
H708        H  0.40583547  0.18618991  0.30516888     0.13000
C709        C  0.24406351  0.99123706  0.47920377     0.19000
C710        C  0.20943344  0.98387468  0.49306952    -0.19000
C711        C  0.20024851  0.95582439  0.51010657    -0.11300
C712        C  0.22521222  0.93385263  0.51350262     0.21300
C713        C  0.25875618  0.94018156  0.49915710    -0.20700
C714        C  0.26817122  0.96850317  0.48230009    -0.11500
C715        C  0.21801118  0.90426730  0.53157776    -0.15700
C716        C  0.19153699  0.89976676  0.54782039    -0.29500
C717        C  0.25446011  0.02227087  0.46150695    -0.03800
C718        C  0.29724577  0.04956212  0.45485715    -0.40300
H719        H  0.18994315  0.00050796  0.49090118     0.12400
H720        H  0.17345034  0.95152795  0.52036483     0.12100
H721        H  0.27822895  0.92345798  0.50109561     0.11500
H722        H  0.29422344  0.97236657  0.47160349     0.11800
H723        H  0.23685875  0.88647443  0.53181353     0.14500
H724        H  0.17311145  0.91784774  0.54840107     0.13300
H725        H  0.22692312  0.02406492  0.45445209     0.10900
H726        H  0.32470121  0.04988178  0.46304172     0.13000
C727        C  0.06715572  0.16046800  0.37951422     0.19000
C728        C  0.06890925  0.12223648  0.38562697    -0.19000
C729        C  0.10980213  0.12245349  0.38530846    -0.11300
C730        C  0.14967477  0.16067819  0.37836264     0.21300
C731        C  0.14805577  0.19916548  0.37236517    -0.20700
C732        C  0.10716958  0.19936286  0.37323354    -0.11500
C733        C  0.19146336  0.15849129  0.37497819    -0.15700
C734        C  0.20317723  0.13498028  0.38733014    -0.29500
C735        C  0.02244885  0.15666015  0.37744187    -0.03800
C736        C  0.01348094  0.18940852  0.38253211    -0.40300
H737        H  0.03828530  0.09170943  0.39020213     0.12400
H738        H  0.10968498  0.09181448  0.38944729     0.12100
H739        H  0.17823818  0.22868289  0.36662256     0.11500
H740        H  0.10637800  0.22890804  0.36799842     0.11800
H741        H  0.21147624  0.17435045  0.36135638     0.14500
H742        H  0.18496893  0.12171487  0.40159917     0.13300
H743        H  0.99517269  0.12456541  0.37214206     0.10900
H744        H  0.03902325  0.22007901  0.38964679     0.13000
C745        C  0.60738413  0.11438974  0.39974598     0.19000
C746        C  0.57785840  0.09755793  0.41656892    -0.19000
C747        C  0.53710039  0.09768842  0.41687033    -0.11300
C748        C  0.52471059  0.11455076  0.40033691     0.21300
C749        C  0.55320534  0.12954735  0.38303881    -0.20700
C750        C  0.59414257  0.12948542  0.38274446    -0.11500
C751        C  0.48494410  0.12084764  0.40281348    -0.15700
C752        C  0.46356426  0.12774436  0.38747531    -0.29500
C753        C  0.65355820  0.12088884  0.40171342    -0.03800
C754        C  0.68293042  0.13003494  0.38616508    -0.40300
H755        H  0.58719688  0.08592309  0.42990131     0.12400
H756        H  0.51592820  0.08610310  0.43041636     0.12100
H757        H  0.54548414  0.14381283  0.37016653     0.11500
H758        H  0.61623326  0.14375364  0.36964316     0.11800
H759        H  0.47352929  0.12107796  0.41824951     0.14500
H760        H  0.47235600  0.12518843  0.37187083     0.13300
H761        H  0.66465838  0.12036954  0.41698758     0.10900
H762        H  0.67235767  0.12882027  0.37067800     0.13000
C763        C  0.79393995  0.57607263  0.27386335     0.19000
C764        C  0.75515632  0.56151178  0.26218311    -0.19000
C765        C  0.75890259  0.56736020  0.24108125    -0.11300
C766        C  0.80161740  0.58776409  0.23139560     0.21300
C767        C  0.83975791  0.59849922  0.24288738    -0.20700
C768        C  0.83594657  0.59207464  0.26385065    -0.11500
C769        C  0.80861201  0.60514536  0.21032318    -0.15700
C770        C  0.77842277  0.58608769  0.19548734    -0.29500
C771        C  0.79077507  0.58023892  0.29621907    -0.03800
C772        C  0.82371178  0.61579795  0.30591122    -0.40300
H773        H  0.72238147  0.54879053  0.26950069     0.12400
H774        H  0.72891369  0.55915804  0.23263771     0.12100
H775        H  0.87296580  0.61391261  0.23572959     0.11500
H776        H  0.86633698  0.60196643  0.27229188     0.11800
H777        H  0.84005023  0.63626072  0.20702732     0.14500
H778        H  0.74845403  0.55319966  0.19771594     0.13300
H779        H  0.75876323  0.55878599  0.30402942     0.10900
H780        H  0.85380687  0.63978854  0.29747908     0.13000
C781        C  0.80056112  0.87034629  0.38781716     0.19000
C782        C  0.83263408  0.90670853  0.39914165    -0.19000
C783        C  0.83855874  0.94998005  0.39662042    -0.11300
C784        C  0.81190438  0.95754482  0.38288587     0.21300
C785        C  0.77828026  0.92063657  0.37237165    -0.20700
C786        C  0.77242402  0.87746419  0.37487791    -0.11500
C787        C  0.82124117  0.00371126  0.37754041    -0.15700
C788        C  0.84269492  0.03969211  0.38970211    -0.29500
C789        C  0.79932065  0.82631672  0.38870543    -0.03800
C790        C  0.79168578  0.80087108  0.37209020    -0.40300
H791        H  0.85470261  0.90208580  0.40921150     0.12400
H792        H  0.86547178  0.97760378  0.40470339     0.12100
H793        H  0.75721189  0.92544607  0.36175857     0.11500
H794        H  0.74653228  0.84989962  0.36632839     0.11800
H795        H  0.81097254  0.00838018  0.36267100     0.14500
H796        H  0.85104245  0.03537858  0.40500864     0.13300
H797        H  0.81043034  0.81756781  0.40242488     0.10900
H798        H  0.78492544  0.81202132  0.35785413     0.13000
C799        C  0.84207646  0.37066914  0.39808832     0.19000
C800        C  0.83480229  0.38750063  0.37995045    -0.19000
C801        C  0.83140818  0.42675859  0.38004565    -0.11300
C802        C  0.83526287  0.44984454  0.39829009     0.21300
C803        C  0.84379598  0.43348990  0.41612859    -0.20700
C804        C  0.84719026  0.39460832  0.41602648    -0.11500
C805        C  0.82799813  0.48919272  0.40003156    -0.15700
C806        C  0.82638667  0.51339801  0.38435765    -0.29500
C807        C  0.84009100  0.32636331  0.39982381    -0.03800
C808        C  0.84071004  0.30087058  0.38435955    -0.40300
H809        H  0.82987670  0.36965186  0.36586053     0.12400
H810        H  0.82410559  0.43765779  0.36597205     0.12100
H811        H  0.84692602  0.45037373  0.43039376     0.11500
H812        H  0.85265623  0.38247865  0.43024505     0.11800
H813        H  0.82374318  0.49875645  0.41525223     0.14500
H814        H  0.83185212  0.50581990  0.36898506     0.13300
H815        H  0.83649605  0.31323684  0.41513825     0.10900
H816        H  0.84621493  0.31326813  0.36887585     0.13000
C817        C  0.11373850  0.90509072  0.36237814     0.19000
C818        C  0.09124156  0.88304963  0.38049683    -0.19000
C819        C  0.04741199  0.84557003  0.38009059    -0.11300
C820        C  0.02519164  0.82963076  0.36156108     0.21300
C821        C  0.04876310  0.85028442  0.34353217    -0.20700
C822        C  0.09227548  0.88761842  0.34394044    -0.11500
C823        C  0.97696609  0.79366446  0.36003109    -0.15700
C824        C  0.94670062  0.77876164  0.37552531    -0.29500
C825        C  0.15730992  0.94855491  0.36181523    -0.03800
C826        C  0.18561506  0.96668892  0.37745667    -0.40300
H827        H  0.10636579  0.89553811  0.39504780     0.12400
H828        H  0.03100807  0.83005478  0.39433439     0.12100
H829        H  0.03277694  0.83862682  0.32902533     0.11500
H830        H  0.10873642  0.90376997  0.32974221     0.11800
H831        H  0.96489882  0.78137261  0.34492129     0.14500
H832        H  0.95708253  0.79008608  0.39084919     0.13300
H833        H  0.16589047  0.96738670  0.34763402     0.10900
H834        H  0.17940502  0.94822328  0.39158034     0.13000
C835        C  0.52366787  0.36829859  0.40403672     0.19000
C836        C  0.54788050  0.38613349  0.38568690    -0.19000
C837        C  0.58583106  0.42967807  0.38485724    -0.11300
C838        C  0.60051889  0.45639877  0.40236284     0.21300
C839        C  0.57570982  0.43883687  0.42049830    -0.20700
C840        C  0.53791698  0.39544405  0.42132985    -0.11500
C841        C  0.64409808  0.50000718  0.40318994    -0.15700
C842        C  0.66954363  0.52388874  0.38700114    -0.29500
C843        C  0.48574122  0.32076976  0.40626465    -0.03800
C844        C  0.46275941  0.29415397  0.39066305    -0.40300
H845        H  0.53903794  0.36612014  0.37209275     0.12400
H846        H  0.60452192  0.44121897  0.37069472     0.12100
H847        H  0.58637790  0.45832446  0.43428902     0.11500
H848        H  0.52026521  0.38267332  0.43569742     0.11800
H849        H  0.65734828  0.51149551  0.41822372     0.14500
H850        H  0.65694759  0.51439892  0.37177803     0.13300
H851        H  0.47672260  0.30694849  0.42153889     0.10900
H852        H  0.46995055  0.30750523  0.37533222     0.13000
C853        C  0.63221222  0.81436014  0.73179147     0.19000
C854        C  0.65676916  0.85072606  0.74475279    -0.19000
C855        C  0.65175119  0.84484595  0.76570108    -0.11300
C856        C  0.62281092  0.80201022  0.77426659     0.21300
C857        C  0.59554058  0.76625169  0.76138039    -0.20700
C858        C  0.60026665  0.77227600  0.74025008    -0.11500
C859        C  0.62470134  0.79369281  0.79628671    -0.15700
C860        C  0.66491239  0.81363601  0.80544517    -0.29500
C861        C  0.64588126  0.82039832  0.71004768    -0.03800
C862        C  0.61940252  0.79544442  0.69484122    -0.40300
H863        H  0.68132718  0.88352431  0.73864299     0.12400
H864        H  0.67209605  0.87353837  0.77521687     0.12100
H865        H  0.57278870  0.73301579  0.76760893     0.11500
H866        H  0.58115853  0.74336472  0.73067925     0.11800
H867        H  0.59451982  0.76871464  0.80436172     0.14500
H868        H  0.69506619  0.83528973  0.79643498     0.13300
H869        H  0.68050433  0.84629821  0.70649260     0.10900
H870        H  0.58390545  0.77133600  0.69766672     0.13000
C871        C  0.37069968  0.50288119  0.61917433     0.19000
C872        C  0.38877514  0.53584759  0.63429355    -0.19000
C873        C  0.43000036  0.57594405  0.63102553    -0.11300
C874        C  0.45400601  0.58362084  0.61253907     0.21300
C875        C  0.43697412  0.54978001  0.59787518    -0.20700
C876        C  0.39632431  0.50963109  0.60124295    -0.11500
C877        C  0.49456487  0.62763064  0.60721790    -0.15700
C878        C  0.52304640  0.65655488  0.62091408    -0.29500
C879        C  0.32414705  0.46325025  0.62184125    -0.03800
C880        C  0.29804256  0.44334500  0.60576255    -0.40300
H881        H  0.37001803  0.53146581  0.64829021     0.12400
H882        H  0.44175299  0.60159946  0.64257566     0.12100
H883        H  0.45498829  0.55464792  0.58360590     0.11500
H884        H  0.38491240  0.48428698  0.58956906     0.11800
H885        H  0.50100084  0.63657825  0.59123892     0.14500
H886        H  0.51842740  0.64723572  0.63684259     0.13300
H887        H  0.30990984  0.45297336  0.63702892     0.10900
H888        H  0.31140381  0.45611955  0.59068907     0.13000
C889        C  0.90796211  0.08844101  0.63284613     0.19000
C890        C  0.89298861  0.06693832  0.61404705    -0.19000
C891        C  0.85374399  0.02436740  0.61302033    -0.11300
C892        C  0.82887573  0.00283789  0.63078122     0.21300
C893        C  0.84316388  0.02534788  0.64929589    -0.20700
C894        C  0.88237978  0.06729656  0.65034094    -0.11500
C895        C  0.78955584  0.95615849  0.63140410    -0.15700
C896        C  0.78021859  0.92440376  0.61724457    -0.29500
C897        C  0.95163473  0.13091765  0.63530454    -0.03800
C898        C  0.97260027  0.16219248  0.62066378    -0.40300
H899        H  0.91231971  0.08196798  0.60026989     0.12400
H900        H  0.84351804  0.00837158  0.59843029     0.12100
H901        H  0.82475235  0.00967123  0.66322142     0.11500
H902        H  0.89318610  0.08301748  0.66499057     0.11800
H903        H  0.77024039  0.94589316  0.64556027     0.14500
H904        H  0.79868585  0.93290096  0.60291815     0.13300
H905        H  0.96698551  0.13683523  0.65010271     0.10900
H906        H  0.95695514  0.15813491  0.60605996     0.13000
C907        C  0.38577073  0.83537539  0.59624812     0.19000
C908        C  0.40411737  0.83356683  0.61496473    -0.19000
C909        C  0.44397722  0.83138459  0.61564436    -0.11300
C910        C  0.46632411  0.83087157  0.59762219     0.21300
C911        C  0.44841514  0.83373836  0.57906832    -0.20700
C912        C  0.40874391  0.83584792  0.57839323    -0.11500
C913        C  0.50612134  0.82403713  0.59702551    -0.15700
C914        C  0.52850516  0.82185092  0.61324960    -0.29500
C915        C  0.34113660  0.83283036  0.59437045    -0.03800
C916        C  0.31807204  0.83827113  0.60977811    -0.40300
H917        H  0.38717044  0.83207649  0.62913249     0.12400
H918        H  0.45602909  0.82864889  0.63029109     0.12100
H919        H  0.46461998  0.83325027  0.56491468     0.11500
H920        H  0.39542241  0.83691580  0.56376404     0.11800
H921        H  0.51645629  0.81862223  0.58212992     0.14500
H922        H  0.52004500  0.82783781  0.62837622     0.13300
H923        H  0.32557820  0.82399110  0.57959847     0.10900
H924        H  0.33270042  0.84758674  0.62466629     0.13000
C925        C  0.97753911  0.81178447  0.62326851     0.19000
C926        C  0.95312464  0.81375958  0.60678166    -0.19000
C927        C  0.90943972  0.80705612  0.60956489    -0.11300
C928        C  0.88934732  0.79865307  0.62901708     0.21300
C929        C  0.91362074  0.79658822  0.64548572    -0.20700
C930        C  0.95704139  0.80288009  0.64270127    -0.11500
C931        C  0.84519326  0.79614090  0.63297342    -0.15700
C932        C  0.81196974  0.78184786  0.61933801    -0.29500
C933        C  0.02557122  0.82351764  0.62000084    -0.03800
C934        C  0.04842105  0.81330052  0.63339672    -0.40300
H935        H  0.96826393  0.82138786  0.59172733     0.12400
H936        H  0.89228653  0.81024782  0.59659834     0.12100
H937        H  0.89925130  0.79096316  0.66067130     0.11500
H938        H  0.97490378  0.80269405  0.65600850     0.11800
H939        H  0.83990565  0.80649280  0.64785066     0.14500
H940        H  0.81552722  0.76883207  0.60485517     0.13300
H941        H  0.04338865  0.84348434  0.60666059     0.10900
H942        H  0.03105186  0.79274157  0.64660993     0.13000
C943        C  0.75848227  0.70118609  0.48727984     0.19000
C944        C  0.72182895  0.67369608  0.50020825    -0.19000
C945        C  0.71253991  0.69134176  0.51754979    -0.11300
C946        C  0.73987090  0.73716080  0.52251114     0.21300
C947        C  0.77752460  0.76440623  0.51002484    -0.20700
C948        C  0.78670488  0.74678618  0.49255187    -0.11500
C949        C  0.73028696  0.75677776  0.54084416    -0.15700
C950        C  0.68794254  0.74122977  0.54807438    -0.29500
C951        C  0.76607277  0.68053874  0.46875259    -0.03800
C952        C  0.79104811  0.70436994  0.45252743    -0.40300
H953        H  0.69995247  0.63834159  0.49679315     0.12400
H954        H  0.68423078  0.66876153  0.52718256     0.12100
H955        H  0.79963602  0.79957551  0.51368339     0.11500
H956        H  0.81619969  0.76893584  0.48345665     0.11800
H957        H  0.75833252  0.78532473  0.54811367     0.14500
H958        H  0.65974473  0.71467477  0.53999291     0.13300
H959        H  0.74855731  0.64391918  0.46809123     0.10900
H960        H  0.80746732  0.74088801  0.45245240     0.13000
loop_ 
_geom_bond_atom_site_label_1 
_geom_bond_atom_site_label_2 
_geom_bond_distance 
_geom_bond_site_symmetry_2 
_ccdc_geom_bond_type 
O1           Ni7   1.932       .  S
O1           C22   1.272       .  A
O2          Ni25   1.909       .  S
O2           C11   1.267       .  A
O3           Ni7   1.905       .  S
O3          Ni25   1.903       .  S
O3          Ni19   1.906       .  S
O3           H26   0.966       .  S
C4           O21   1.269       .  A
C4           O13   1.275       .  A
C4          C932   1.482       .  S
O5          Ni24   1.932       .  S
O5           C11   1.274       .  A
O6          Ni24   1.899       .  S
O6            C8   1.271       .  A
Ni7          O10   1.920       .  S
Ni7          O12   1.914       .  S
C8           O18   1.279       .  A
C8          C896   1.483       .  S
O9          Ni25   1.932       .  S
O9           C15   1.279       .  A
O10          C15   1.278       .  A
C11         C862   1.483       .  S
O12          C14   1.270       .  A
O13         Ni24   1.939       .  S
C14          O20   1.268       .  A
C14         C878   1.480       .  S
C15         C914   1.485       .  S
H16          O17   0.966       .  S
O17         Ni25   1.926       .  S
O17         Ni19   1.917       .  S
O17         Ni24   1.910       .  S
O18         Ni19   1.955       .  S
Ni19         O23   1.919       .  S
Ni19         O21   1.909       .  S
O20         Ni25   1.921       .  S
C22          O23   1.271       .  A
C22         C950   1.481       .  S
O27         Ni33   1.950       .  S
O27          C48   1.277       .  A
O28         Ni51   1.924       .  S
O28          C37   1.270       .  A
O29         Ni33   1.907       .  S
O29         Ni51   1.915       .  S
O29         Ni45   1.916       .  S
O29          H52   0.966       .  S
C30          O47   1.279       .  A
C30          O39   1.276       .  A
C30         C790   1.477       .  S
O31         Ni50   1.923       .  S
O31          C37   1.267       .  A
O32         Ni50   1.905       .  S
O32          C34   1.267       .  A
Ni33         O36   1.938       .  S
Ni33         O38   1.905       .  S
C34          O44   1.268       .  A
C34         C824   1.480       .  S
O35         Ni51   1.911       .  S
O35          C41   1.272       .  A
O36          C41   1.280       .  A
C37         C772   1.473       .  S
O38          C40   1.271       .  A
O39         Ni50   1.922       .  S
C40          O46   1.277       .  A
C40         C842   1.486       .  S
C41         C806   1.484       .  S
H42          O43   0.966       .  S
O43         Ni51   1.908       .  S
O43         Ni45   1.906       .  S
O43         Ni50   1.907       .  S
O44         Ni45   1.927       .  S
Ni45         O49   1.902       .  S
Ni45         O47   1.927       .  S
O46         Ni51   1.940       .  S
C48          O49   1.266       .  A
C48         C952   1.485       .  S
O53         Ni59   1.937       .  S
O53          C74   1.273       .  A
O54         Ni77   1.920       .  S
O54          C63   1.269       .  A
O55         Ni59   1.911       .  S
O55         Ni77   1.916       .  S
O55         Ni71   1.920       .  S
O55          H78   0.966       .  S
C56          O73   1.275       .  A
C56          O65   1.279       .  A
C56         C826   1.482   1_545  S
O57         Ni76   1.932       .  S
O57          C63   1.272       .  A
O58         Ni76   1.906       .  S
O58          C60   1.268       .  A
Ni59         O62   1.932       .  S
Ni59         O64   1.907       .  S
C60          O70   1.272       .  A
C60         C734   1.475       .  S
O61         Ni77   1.919       .  S
O61          C67   1.274       .  A
O62          C67   1.278       .  A
C63         C700   1.487       .  S
O64          C66   1.270       .  A
O65         Ni76   1.931       .  S
C66          O72   1.272       .  A
C66         C752   1.480       .  S
C67         C844   1.484       .  S
H68          O69   0.966       .  S
O69         Ni77   1.906       .  S
O69         Ni71   1.910       .  S
O69         Ni76   1.906       .  S
O70         Ni71   1.935       .  S
Ni71         O75   1.920       .  S
Ni71         O73   1.915       .  S
O72         Ni77   1.927       .  S
C74          O75   1.270       .  A
C74         C718   1.484       .  S
O79         Ni85   1.954       .  S
O79         C100   1.277       .  A
O80        Ni103   1.914       .  S
O80          C89   1.268       .  A
O81         Ni85   1.919       .  S
O81        Ni103   1.910       .  S
O81         Ni97   1.897       .  S
O81         H104   0.966       .  S
C82          O99   1.265       .  A
C82          O91   1.274       .  A
C82         C680   1.479       .  S
O83        Ni102   1.926       .  S
O83          C89   1.272       .  A
O84        Ni102   1.900       .  S
O84          C86   1.268       .  A
Ni85         O88   1.932       .  S
Ni85         O90   1.914       .  S
C86          O96   1.281       .  A
C86         C934   1.479       .  S
O87        Ni103   1.918       .  S
O87          C93   1.275       .  A
O88          C93   1.280       .  A
C89         C644   1.481       .  S
O90          C92   1.271       .  A
O91        Ni102   1.935       .  S
C92          O98   1.269       .  A
C92         C916   1.481       .  S
C93         C664   1.483       .  S
H94          O95   0.966       .  S
O95        Ni103   1.924       .  S
O95         Ni97   1.917       .  S
O95        Ni102   1.917       .  S
O96         Ni97   1.960       .  S
Ni97        O101   1.903       .  S
Ni97         O99   1.903       .  S
O98        Ni103   1.922       .  S
C100        O101   1.266       .  A
C100        C716   1.488       .  S
O105       Ni111   1.940       .  S
O105        C126   1.272       .  A
O106       Ni129   1.927       .  S
O106        C115   1.273       .  A
O107       Ni111   1.912       .  S
O107       Ni129   1.917       .  S
O107       Ni123   1.898       .  S
O107        H130   0.966       .  S
C108        O125   1.265       .  A
C108        O117   1.275       .  A
C108        C898   1.479   1_455  S
O109       Ni128   1.924       .  S
O109        C115   1.272       .  A
O110       Ni128   1.901       .  S
O110        C112   1.269       .  A
Ni111       O114   1.912       .  S
Ni111       O116   1.907       .  S
C112        O122   1.273       .  A
C112        C682   1.481       .  S
O113       Ni129   1.938       .  S
O113        C119   1.281       .  A
O114        C119   1.274       .  A
C115        C608   1.489       .  S
O116        C118   1.270       .  A
O117       Ni128   1.936       .  S
C118        O124   1.272       .  A
C118        C662   1.482       .  S
C119        C880   1.476       .  S
H120        O121   0.966       .  S
O121       Ni129   1.928       .  S
O121       Ni123   1.916       .  S
O121       Ni128   1.918       .  S
O122       Ni123   1.941       .  S
Ni123       O127   1.900       .  S
Ni123       O125   1.901       .  S
O124       Ni129   1.929       .  S
C126        O127   1.262       .  A
C126        C626   1.478       .  S
O131       Ni137   1.935       .  S
O131        C152   1.272       .  A
O132       Ni155   1.904       .  S
O132        C141   1.268       .  A
O133       Ni137   1.903       .  S
O133       Ni155   1.906       .  S
O133       Ni149   1.910       .  S
O133        H156   0.966       .  S
C134        O151   1.271       .  A
C134        O143   1.278       .  A
C134        C736   1.476   1_655  S
O135       Ni154   1.937       .  S
O135        C141   1.276       .  A
O136       Ni154   1.911       .  S
O136        C138   1.270       .  A
Ni137       O140   1.923       .  S
Ni137       O142   1.905       .  S
C138        O148   1.274       .  A
C138        C788   1.481       .  S
O139       Ni155   1.923       .  S
O139        C145   1.275       .  A
O140        C145   1.277       .  A
C141        C590   1.480       .  S
O142        C144   1.270       .  A
O143       Ni154   1.939       .  S
C144        O150   1.274       .  A
C144        C808   1.486       .  S
C145        C754   1.480       .  S
H146        O147   0.967       .  S
O147       Ni155   1.909       .  S
O147       Ni149   1.904       .  S
O147       Ni154   1.908       .  S
O148       Ni149   1.944       .  S
Ni149       O153   1.906       .  S
Ni149       O151   1.910       .  S
O150       Ni155   1.935       .  S
C152        O153   1.267       .  A
C152        C628   1.477       .  S
O157       Ni163   1.917       .  S
O157        C178   1.270       .  A
O158       Ni181   1.914       .  S
O158        C167   1.269       .  A
O159       Ni163   1.912       .  S
O159       Ni181   1.915       .  S
O159       Ni175   1.925       .  S
O159        H182   0.966       .  S
C160        O177   1.276       .  A
C160        O169   1.277       .  A
C160        C536   1.482       .  S
O161       Ni180   1.935       .  S
O161        C167   1.272       .  A
O162       Ni180   1.907       .  S
O162        C164   1.271       .  A
Ni163       O166   1.931       .  S
Ni163       O168   1.899       .  S
C164        O174   1.275       .  A
C164        C500   1.488       .  S
O165       Ni181   1.913       .  S
O165        C171   1.268       .  A
O166        C171   1.273       .  A
C167        C572   1.482       .  S
O168        C170   1.269       .  A
O169       Ni180   1.922       .  S
C170        O176   1.278       .  A
C170        C518   1.486       .  S
C171        C554   1.475       .  S
H172        O173   0.966       .  S
O173       Ni181   1.908       .  S
O173       Ni175   1.911       .  S
O173       Ni180   1.902       .  S
O174       Ni175   1.939       .  S
Ni175       O179   1.922       .  S
Ni175       O177   1.926       .  S
O176       Ni181   1.958       .  S
C178        O179   1.272       .  A
C178        C860   1.475       .  S
O183       Ni189   1.930       .  S
O183        C204   1.272       .  A
O184       Ni207   1.906       .  S
O184        C193   1.266       .  A
O185       Ni189   1.914       .  S
O185       Ni207   1.918       .  S
O185       Ni201   1.921       .  S
O185        H208   0.965       .  S
C186        O203   1.277       .  A
C186        O195   1.280       .  A
C186        C484   1.483       .  S
O187       Ni206   1.945       .  S
O187        C193   1.276       .  A
O188       Ni206   1.916       .  S
O188        C190   1.271       .  A
Ni189       O192   1.936       .  S
Ni189       O194   1.898       .  S
C190        O200   1.269       .  A
C190        C446   1.480       .  S
O191       Ni207   1.905       .  S
O191        C197   1.268       .  A
O192        C197   1.276       .  A
C193        C574   1.483       .  S
O194        C196   1.267       .  A
O195       Ni206   1.930       .  S
C196        O202   1.278       .  A
C196        C430   1.475       .  S
C197        C466   1.479       .  S
H198        O199   0.966       .  S
O199       Ni207   1.900       .  S
O199       Ni201   1.904       .  S
O199       Ni206   1.913       .  S
O200       Ni201   1.921       .  S
Ni201       O205   1.910       .  S
Ni201       O203   1.922       .  S
O202       Ni207   1.951       .  S
C204        O205   1.266       .  A
C204        C770   1.478       .  S
O209       Ni215   1.929       .  S
O209        C230   1.274       .  A
O210       Ni233   1.903       .  S
O210        C219   1.265       .  A
O211       Ni215   1.919       .  S
O211       Ni233   1.913       .  S
O211       Ni227   1.924       .  S
O211        H234   0.966       .  S
C212        O229   1.277       .  A
C212        O221   1.278       .  A
C212        C448   1.483       .  S
O213       Ni232   1.943       .  S
O213        C219   1.275       .  A
O214       Ni232   1.911       .  S
O214        C216   1.271       .  A
Ni215       O218   1.941       .  S
Ni215       O220   1.905       .  S
C216        O226   1.275       .  A
C216        C412   1.489       .  S
O217       Ni233   1.903       .  S
O217        C223   1.267       .  A
O218        C223   1.276       .  A
C219        C374   1.481       .  S
O220        C222   1.270       .  A
O221       Ni232   1.925       .  S
C222        O228   1.276       .  A
C222        C392   1.484       .  S
C223        C428   1.481   1_545  S
H224        O225   0.966       .  S
O225       Ni233   1.901       .  S
O225       Ni227   1.908       .  S
O225       Ni232   1.911       .  S
O226       Ni227   1.938       .  S
Ni227       O231   1.920       .  S
Ni227       O229   1.924       .  S
O228       Ni233   1.949       .  S
C230        O231   1.271       .  A
C230        C698   1.488       .  S
O235       Ni241   1.927       .  S
O235        C256   1.270       .  A
O236       Ni259   1.910       .  S
O236        C245   1.268       .  A
O237       Ni241   1.906       .  S
O237       Ni259   1.912       .  S
O237       Ni253   1.912       .  S
O237        H260   0.967       .  S
C238        O255   1.277       .  A
C238        O247   1.278       .  A
C238        C338   1.483       .  S
O239       Ni258   1.934       .  S
O239        C245   1.272       .  A
O240       Ni258   1.904       .  S
O240        C242   1.270       .  A
Ni241       O244   1.932       .  S
Ni241       O246   1.905       .  S
C242        O252   1.274       .  A
C242        C538   1.483       .  S
O243       Ni259   1.916       .  S
O243        C249   1.274       .  A
O244        C249   1.278       .  A
C245        C376   1.479       .  S
O246        C248   1.267       .  A
O247       Ni258   1.923       .  S
C248        O254   1.271       .  A
C248        C556   1.476       .  S
C249        C356   1.485   1_565  S
H250        O251   0.966       .  S
O251       Ni259   1.912       .  S
O251       Ni253   1.911       .  S
O251       Ni258   1.901       .  S
O252       Ni253   1.936       .  S
Ni253       O257   1.921       .  S
Ni253       O255   1.926       .  S
O254       Ni259   1.936       .  S
C256        O257   1.271       .  A
C256        C646   1.475       .  S
O261       Ni267   1.932       .  S
O261        C282   1.274       .  A
O262       Ni285   1.915       .  S
O262        C271   1.270       .  A
O263       Ni267   1.909       .  S
O263       Ni285   1.918       .  S
O263       Ni279   1.920       .  S
O263        H286   0.966       .  S
C264        O281   1.277       .  A
C264        O273   1.279       .  A
C264        C502   1.487       .  S
O265       Ni284   1.936       .  S
O265        C271   1.273       .  A
O266       Ni284   1.907       .  S
O266        C268   1.270       .  A
Ni267       O270   1.932       .  S
Ni267       O272   1.902       .  S
C268        O278   1.273       .  A
C268        C340   1.483       .  S
O269       Ni285   1.914       .  S
O269        C275   1.271       .  A
O270        C275   1.276       .  A
C271        C320   1.484       .  S
O272        C274   1.270       .  A
O273       Ni284   1.926       .  S
C274        O280   1.277       .  A
C274        C358   1.485       .  S
C275        C520   1.484   1_455  S
H276        O277   0.966       .  S
O277       Ni285   1.913       .  S
O277       Ni279   1.910       .  S
O277       Ni284   1.904       .  S
O278       Ni279   1.931       .  S
Ni279       O283   1.920       .  S
Ni279       O281   1.930       .  S
O280       Ni285   1.950       .  S
C282        O283   1.270       .  A
C282        C610   1.489       .  S
O287       Ni293   1.923       .  S
O287        C308   1.270       .  A
O288       Ni311   1.901       .  S
O288        C297   1.266       .  A
O289       Ni293   1.911       .  S
O289       Ni311   1.905       .  S
O289       Ni305   1.919       .  S
O289        H312   0.966       .  S
C290        O307   1.278       .  A
C290        O299   1.281       .  A
C290        C410   1.489       .  S
O291       Ni310   1.954       .  S
O291        C297   1.278       .  A
O292       Ni310   1.909       .  S
O292        C294   1.271       .  A
Ni293       O296   1.928       .  S
Ni293       O298   1.903       .  S
C294        O304   1.274       .  A
C294        C482   1.483       .  S
O295       Ni311   1.922       .  S
O295        C301   1.275       .  A
O296        C301   1.278       .  A
C297        C322   1.484       .  S
O298        C300   1.268       .  A
O299       Ni310   1.938       .  S
C300        O306   1.270       .  A
C300        C464   1.480       .  S
C301        C394   1.483   1_655  S
H302        O303   0.966       .  S
O303       Ni311   1.911       .  S
O303       Ni305   1.910       .  S
O303       Ni310   1.908       .  S
O304       Ni305   1.932       .  S
Ni305       O309   1.923       .  S
Ni305       O307   1.924       .  S
O306       Ni311   1.930       .  S
C308        O309   1.269       .  A
C308        C592   1.482       .  S
C313        C321   1.494       .  S
C313        C314   1.403       .  A
C313        C318   1.409       .  A
C314        C315   1.401   1_654  A
C314        H323   1.083       .  S
C315        C316   1.409       .  A
C315        H324   1.082       .  S
C316        C319   1.496       .  S
C316        C317   1.405   1_455  A
C317        C318   1.404   1_556  A
C317        H325   1.083       .  S
C318        H326   1.082       .  S
C319        H327   1.087       .  S
C319        C320   1.349       .  D
C320        H328   1.085       .  S
C321        H329   1.087       .  S
C321        C322   1.348       .  D
C322        H330   1.085       .  S
C331        C339   1.487       .  S
C331        C332   1.408       .  A
C331        C336   1.402       .  A
C332        C333   1.403       .  A
C332        H341   1.082       .  S
C333        C334   1.410       .  A
C333        H342   1.081       .  S
C334        C337   1.490       .  S
C334        C335   1.403       .  A
C335        C336   1.396       .  A
C335        H343   1.084       .  S
C336        H344   1.084       .  S
C337        H345   1.087       .  S
C337        C338   1.348       .  D
C338        H346   1.084       .  S
C339        H347   1.087       .  S
C339        C340   1.348       .  D
C340        H348   1.085       .  S
C349        C357   1.490       .  S
C349        C350   1.403       .  A
C349        C354   1.411       .  A
C350        C351   1.392       .  A
C350        H359   1.084       .  S
C351        C352   1.400       .  A
C351        H360   1.084       .  S
C352        C355   1.485       .  S
C352        C353   1.408       .  A
C353        C354   1.407       .  A
C353        H361   1.082       .  S
C354        H362   1.081       .  S
C355        H363   1.087       .  S
C355        C356   1.348       .  D
C356        H364   1.085       .  S
C357        H365   1.087       .  S
C357        C358   1.350       .  D
C358        H366   1.084       .  S
C367        C375   1.490       .  S
C367        C368   1.404       .  A
C367        C372   1.407       .  A
C368        C369   1.401   1_566  A
C368        H377   1.083       .  S
C369        C370   1.410       .  A
C369        H378   1.081       .  S
C370        C373   1.492       .  S
C370        C371   1.404       .  A
C371        C372   1.399   1_544  A
C371        H379   1.083       .  S
C372        H380   1.082       .  S
C373        H381   1.087       .  S
C373        C374   1.347       .  D
C374        H382   1.084       .  S
C375        H383   1.087       .  S
C375        C376   1.347       .  D
C376        H384   1.085       .  S
C385        C393   1.490       .  S
C385        C386   1.408       .  A
C385        C390   1.402       .  A
C386        C387   1.403       .  A
C386        H395   1.082       .  S
C387        C388   1.410       .  A
C387        H396   1.080       .  S
C388        C391   1.494       .  S
C388        C389   1.405       .  A
C389        C390   1.398       .  A
C389        H397   1.083       .  S
C390        H398   1.083       .  S
C391        H399   1.087       .  S
C391        C392   1.350       .  D
C392        H400   1.083       .  S
C393        H401   1.087       .  S
C393        C394   1.348       .  D
C394        H402   1.085       .  S
C403        C411   1.496       .  S
C403        C404   1.410       .  A
C403        C408   1.404       .  A
C404        C405   1.406       .  A
C404        H413   1.081       .  S
C405        C406   1.411       .  A
C405        H414   1.080       .  S
C406        C409   1.498       .  S
C406        C407   1.404       .  A
C407        C408   1.398       .  A
C407        H415   1.083       .  S
C408        H416   1.084       .  S
C409        H417   1.087       .  S
C409        C410   1.351       .  D
C410        H418   1.084       .  S
C411        H419   1.087       .  S
C411        C412   1.352       .  D
C412        H420   1.084       .  S
C421        C429   1.490   1_455  S
C421        C422   1.404       .  A
C421        C426   1.409       .  A
C422        C423   1.403       .  A
C422        H431   1.083       .  S
C423        C424   1.410       .  A
C423        H432   1.081       .  S
C424        C427   1.488       .  S
C424        C425   1.402       .  A
C425        C426   1.395       .  A
C425        H433   1.084       .  S
C426        H434   1.082   1_455  S
C427        H435   1.087       .  S
C427        C428   1.346       .  D
C428        H436   1.085       .  S
C429        H437   1.087       .  S
C429        C430   1.345       .  D
C430        H438   1.086       .  S
C439        C447   1.491       .  S
C439        C440   1.409       .  A
C439        C444   1.405       .  A
C440        C441   1.401       .  A
C440        H449   1.080       .  S
C441        C442   1.409       .  A
C441        H450   1.081       .  S
C442        C445   1.489       .  S
C442        C443   1.402       .  A
C443        C444   1.398       .  A
C443        H451   1.083       .  S
C444        H452   1.083       .  S
C445        H453   1.087       .  S
C445        C446   1.346       .  D
C446        H454   1.085       .  S
C447        H455   1.087       .  S
C447        C448   1.350       .  D
C448        H456   1.084       .  S
C457        C465   1.486       .  S
C457        C458   1.408       .  A
C457        C462   1.402       .  A
C458        C459   1.401       .  A
C458        H467   1.082       .  S
C459        C460   1.408       .  A
C459        H468   1.081       .  S
C460        C463   1.487   1_565  S
C460        C461   1.404       .  A
C461        C462   1.397       .  A
C461        H469   1.084       .  S
C462        H470   1.083       .  S
C463        H471   1.087       .  S
C463        C464   1.348       .  D
C464        H472   1.084       .  S
C465        H473   1.087       .  S
C465        C466   1.346       .  D
C466        H474   1.085       .  S
C475        C483   1.492       .  S
C475        C476   1.410       .  A
C475        C480   1.404       .  A
C476        C477   1.403       .  A
C476        H485   1.080       .  S
C477        C478   1.409       .  A
C477        H486   1.081       .  S
C478        C481   1.490       .  S
C478        C479   1.403       .  A
C479        C480   1.397       .  A
C479        H487   1.083       .  S
C480        H488   1.083       .  S
C481        H489   1.087       .  S
C481        C482   1.349       .  D
C482        H490   1.085       .  S
C483        H491   1.087       .  S
C483        C484   1.349       .  D
C484        H492   1.084       .  S
C493        C501   1.493       .  S
C493        C494   1.403       .  A
C493        C498   1.412       .  A
C494        C495   1.395       .  A
C494        H503   1.084       .  S
C495        C496   1.402       .  A
C495        H504   1.084       .  S
C496        C499   1.489       .  S
C496        C497   1.409       .  A
C497        C498   1.408       .  A
C497        H505   1.082       .  S
C498        H506   1.081       .  S
C499        H507   1.087       .  S
C499        C500   1.350       .  D
C500        H508   1.085       .  S
C501        H509   1.087       .  S
C501        C502   1.349       .  D
C502        H510   1.084       .  S
C511        C519   1.487       .  S
C511        C512   1.408       .  A
C511        C516   1.402       .  A
C512        C513   1.406       .  A
C512        H521   1.082       .  S
C513        C514   1.410       .  A
C513        H522   1.080       .  S
C514        C517   1.492   1_545  S
C514        C515   1.404       .  A
C515        C516   1.395       .  A
C515        H523   1.084       .  S
C516        H524   1.084       .  S
C517        H525   1.087       .  S
C517        C518   1.351       .  D
C518        H526   1.084       .  S
C519        H527   1.087       .  S
C519        C520   1.348       .  D
C520        H528   1.086       .  S
C529        C537   1.487       .  S
C529        C530   1.408       .  A
C529        C534   1.403       .  A
C530        C531   1.403       .  A
C530        H539   1.082       .  S
C531        C532   1.409       .  A
C531        H540   1.081       .  S
C532        C535   1.488       .  S
C532        C533   1.403       .  A
C533        C534   1.396       .  A
C533        H541   1.084       .  S
C534        H542   1.084       .  S
C535        H543   1.087       .  S
C535        C536   1.347       .  D
C536        H544   1.085       .  S
C537        H545   1.088       .  S
C537        C538   1.349       .  D
C538        H546   1.085       .  S
C547        C555   1.483   1_655  S
C547        C548   1.404       .  A
C547        C552   1.406       .  A
C548        C549   1.401       .  A
C548        H557   1.083       .  S
C549        C550   1.405       .  A
C549        H558   1.083       .  S
C550        C553   1.477       .  S
C550        C551   1.401       .  A
C551        C552   1.396       .  A
C551        H559   1.084       .  S
C552        H560   1.082   1_655  S
C553        H561   1.088       .  S
C553        C554   1.344       .  D
C554        H562   1.086       .  S
C555        H563   1.087       .  S
C555        C556   1.345       .  D
C556        H564   1.086       .  S
C565        C573   1.490       .  S
C565        C566   1.402       .  A
C565        C570   1.408       .  A
C566        C567   1.398   1_554  A
C566        H575   1.084       .  S
C567        C568   1.410       .  A
C567        H576   1.080       .  S
C568        C571   1.497       .  S
C568        C569   1.407       .  A
C569        C570   1.404   1_556  A
C569        H577   1.083       .  S
C570        H578   1.082       .  S
C571        H579   1.087       .  S
C571        C572   1.349       .  D
C572        H580   1.084       .  S
C573        H581   1.087       .  S
C573        C574   1.347       .  D
C574        H582   1.085       .  S
C583        C591   1.486       .  S
C583        C584   1.409       .  A
C583        C588   1.403       .  A
C584        C585   1.404       .  A
C584        H593   1.081       .  S
C585        C586   1.408       .  A
C585        H594   1.082       .  S
C586        C589   1.483       .  S
C586        C587   1.400       .  A
C587        C588   1.393       .  A
C587        H595   1.084       .  S
C588        H596   1.084       .  S
C589        H597   1.087       .  S
C589        C590   1.345       .  D
C590        H598   1.086       .  S
C591        H599   1.088       .  S
C591        C592   1.349       .  D
C592        H600   1.085       .  S
C601        C609   1.489       .  S
C601        C602   1.410       .  A
C601        C606   1.402       .  A
C602        C603   1.410       .  A
C602        H611   1.082       .  S
C603        C604   1.410       .  A
C603        H612   1.082       .  S
C604        C607   1.490       .  S
C604        C605   1.403       .  A
C605        C606   1.394       .  A
C605        H613   1.084       .  S
C606        H614   1.084       .  S
C607        H615   1.088       .  S
C607        C608   1.351       .  D
C608        H616   1.085       .  S
C609        H617   1.088       .  S
C609        C610   1.349       .  D
C610        H618   1.086       .  S
C619        C627   1.486       .  S
C619        C620   1.403       .  A
C619        C624   1.407       .  A
C620        C621   1.400   1_655  A
C620        H629   1.083       .  S
C621        C622   1.409       .  A
C621        H630   1.081       .  S
C622        C625   1.489       .  S
C622        C623   1.403       .  A
C623        C624   1.398   1_455  A
C623        H631   1.083       .  S
C624        H632   1.082       .  S
C625        H633   1.087       .  S
C625        C626   1.346       .  D
C626        H634   1.085       .  S
C627        H635   1.087       .  S
C627        C628   1.346       .  D
C628        H636   1.086       .  S
C637        C645   1.493       .  S
C637        C638   1.406       .  A
C637        C642   1.408       .  A
C638        C639   1.405       .  A
C638        H647   1.083       .  S
C639        C640   1.407       .  A
C639        H648   1.083       .  S
C640        C643   1.482       .  S
C640        C641   1.401       .  A
C641        C642   1.396       .  A
C641        H649   1.083       .  S
C642        H650   1.082       .  S
C643        H651   1.088       .  S
C643        C644   1.345       .  D
C644        H652   1.086       .  S
C645        H653   1.087       .  S
C645        C646   1.346       .  D
C646        H654   1.086       .  S
C655        C663   1.490       .  S
C655        C656   1.410       .  A
C655        C660   1.402       .  A
C656        C657   1.404       .  A
C656        H665   1.081       .  S
C657        C658   1.411       .  A
C657        H666   1.080       .  S
C658        C661   1.491       .  S
C658        C659   1.403       .  A
C659        C660   1.394       .  A
C659        H667   1.084       .  S
C660        H668   1.083       .  S
C661        H669   1.087       .  S
C661        C662   1.348       .  D
C662        H670   1.083       .  S
C663        H671   1.087       .  S
C663        C664   1.348       .  D
C664        H672   1.084       .  S
C673        C681   1.488       .  S
C673        C674   1.403       .  A
C673        C678   1.410       .  A
C674        C675   1.393       .  A
C674        H683   1.084       .  S
C675        C676   1.401       .  A
C675        H684   1.084       .  S
C676        C679   1.485       .  S
C676        C677   1.409       .  A
C677        C678   1.403       .  A
C677        H685   1.081       .  S
C678        H686   1.080       .  S
C679        H687   1.087   1_545  S
C679        C680   1.346   1_545  D
C680        H688   1.085   1_565  S
C681        H689   1.087       .  S
C681        C682   1.347       .  D
C682        H690   1.083       .  S
C691        C699   1.491       .  S
C691        C692   1.402       .  A
C691        C696   1.411       .  A
C692        C693   1.393       .  A
C692        H701   1.084       .  S
C693        C694   1.401       .  A
C693        H702   1.084       .  S
C694        C697   1.488       .  S
C694        C695   1.409       .  A
C695        C696   1.410       .  A
C695        H703   1.082       .  S
C696        H704   1.082       .  S
C697        H705   1.088       .  S
C697        C698   1.349       .  D
C698        H706   1.086       .  S
C699        H707   1.088       .  S
C699        C700   1.349       .  D
C700        H708   1.085       .  S
C709        C717   1.494   1_565  S
C709        C710   1.404       .  A
C709        C714   1.406       .  A
C710        C711   1.406       .  A
C710        H719   1.083   1_565  S
C711        C712   1.413       .  A
C711        H720   1.080       .  S
C712        C715   1.502       .  S
C712        C713   1.406       .  A
C713        C714   1.401       .  A
C713        H721   1.083       .  S
C714        H722   1.083       .  S
C715        H723   1.087       .  S
C715        C716   1.350       .  D
C716        H724   1.083       .  S
C717        H725   1.087       .  S
C717        C718   1.348       .  D
C718        H726   1.087       .  S
C727        C735   1.477       .  S
C727        C728   1.401       .  A
C727        C732   1.405       .  A
C728        C729   1.395       .  A
C728        H737   1.084       .  S
C729        C730   1.405       .  A
C729        H738   1.083       .  S
C730        C733   1.482       .  S
C730        C731   1.404       .  A
C731        C732   1.402       .  A
C731        H739   1.083       .  S
C732        H740   1.083       .  S
C733        H741   1.087       .  S
C733        C734   1.345       .  D
C734        H742   1.087       .  S
C735        H743   1.088   1_455  S
C735        C736   1.344       .  D
C736        H744   1.086       .  S
C745        C753   1.488       .  S
C745        C746   1.403       .  A
C745        C750   1.409       .  A
C746        C747   1.396       .  A
C746        H755   1.083       .  S
C747        C748   1.403       .  A
C747        H756   1.083       .  S
C748        C751   1.487       .  S
C748        C749   1.408       .  A
C749        C750   1.401       .  A
C749        H757   1.081       .  S
C750        H758   1.081       .  S
C751        H759   1.087       .  S
C751        C752   1.347       .  D
C752        H760   1.085       .  S
C753        H761   1.087       .  S
C753        C754   1.347       .  D
C754        H762   1.084       .  S
C763        C771   1.491       .  S
C763        C764   1.405       .  A
C763        C768   1.408       .  A
C764        C765   1.403       .  A
C764        H773   1.083       .  S
C765        C766   1.407       .  A
C765        H774   1.082       .  S
C766        C769   1.482       .  S
C766        C767   1.402       .  A
C767        C768   1.396       .  A
C767        H775   1.084       .  S
C768        H776   1.082       .  S
C769        H777   1.088       .  S
C769        C770   1.345       .  D
C770        H778   1.086       .  S
C771        H779   1.087       .  S
C771        C772   1.345       .  D
C772        H780   1.086       .  S
C781        C789   1.488       .  S
C781        C782   1.403       .  A
C781        C786   1.407       .  A
C782        C783   1.401       .  A
C782        H791   1.083       .  S
C783        C784   1.409       .  A
C783        H792   1.081       .  S
C784        C787   1.489   1_565  S
C784        C785   1.404       .  A
C785        C786   1.399       .  A
C785        H793   1.083       .  S
C786        H794   1.082       .  S
C787        H795   1.087       .  S
C787        C788   1.347       .  D
C788        H796   1.085       .  S
C789        H797   1.087       .  S
C789        C790   1.346       .  D
C790        H798   1.086       .  S
C799        C807   1.489       .  S
C799        C800   1.409       .  A
C799        C804   1.403       .  A
C800        C801   1.406       .  A
C800        H809   1.081       .  S
C801        C802   1.412       .  A
C801        H810   1.081       .  S
C802        C805   1.492       .  S
C802        C803   1.401       .  A
C803        C804   1.394       .  A
C803        H811   1.083       .  S
C804        H812   1.084       .  S
C805        H813   1.087       .  S
C805        C806   1.346       .  D
C806        H814   1.084       .  S
C807        H815   1.087       .  S
C807        C808   1.350       .  D
C808        H816   1.085       .  S
C817        C825   1.488       .  S
C817        C818   1.408       .  A
C817        C822   1.403       .  A
C818        C819   1.403       .  A
C818        H827   1.081       .  S
C819        C820   1.410       .  A
C819        H828   1.080       .  S
C820        C823   1.489   1_455  S
C820        C821   1.403       .  A
C821        C822   1.394       .  A
C821        H829   1.084       .  S
C822        H830   1.084       .  S
C823        H831   1.087       .  S
C823        C824   1.348       .  D
C824        H832   1.084       .  S
C825        H833   1.087       .  S
C825        C826   1.349       .  D
C826        H834   1.084       .  S
C835        C843   1.494       .  S
C835        C836   1.411       .  A
C835        C840   1.403       .  A
C836        C837   1.403       .  A
C836        H845   1.081       .  S
C837        C838   1.408       .  A
C837        H846   1.081       .  S
C838        C841   1.492       .  S
C838        C839   1.405       .  A
C839        C840   1.398       .  A
C839        H847   1.084       .  S
C840        H848   1.083       .  S
C841        H849   1.087       .  S
C841        C842   1.352       .  D
C842        H850   1.084       .  S
C843        H851   1.087       .  S
C843        C844   1.348       .  D
C844        H852   1.084       .  S
C853        C861   1.485       .  S
C853        C854   1.401       .  A
C853        C858   1.409       .  A
C854        C855   1.394       .  A
C854        H863   1.084       .  S
C855        C856   1.407       .  A
C855        H864   1.083       .  S
C856        C859   1.491       .  S
C856        C857   1.405       .  A
C857        C858   1.406       .  A
C857        H865   1.083       .  S
C858        H866   1.082       .  S
C859        H867   1.086       .  S
C859        C860   1.345       .  D
C860        H868   1.087       .  S
C861        H869   1.088       .  S
C861        C862   1.346       .  D
C862        H870   1.086       .  S
C871        C879   1.494       .  S
C871        C872   1.405       .  A
C871        C876   1.410       .  A
C872        C873   1.404       .  A
C872        H881   1.083       .  S
C873        C874   1.409       .  A
C873        H882   1.082       .  S
C874        C877   1.486       .  S
C874        C875   1.400       .  A
C875        C876   1.395       .  A
C875        H883   1.084       .  S
C876        H884   1.081       .  S
C877        H885   1.087       .  S
C877        C878   1.345       .  D
C878        H886   1.086       .  S
C879        H887   1.086       .  S
C879        C880   1.345       .  D
C880        H888   1.085       .  S
C889        C897   1.484       .  S
C889        C890   1.410       .  A
C889        C894   1.400       .  A
C890        C891   1.405       .  A
C890        H899   1.082       .  S
C891        C892   1.409       .  A
C891        H900   1.081       .  S
C892        C895   1.486   1_545  S
C892        C893   1.403       .  A
C893        C894   1.393       .  A
C893        H901   1.084       .  S
C894        H902   1.084       .  S
C895        H903   1.087       .  S
C895        C896   1.349       .  D
C896        H904   1.084       .  S
C897        H905   1.087       .  S
C897        C898   1.344       .  D
C898        H906   1.086       .  S
C907        C915   1.492       .  S
C907        C908   1.411       .  A
C907        C912   1.402       .  A
C908        C909   1.404       .  A
C908        H917   1.080       .  S
C909        C910   1.409       .  A
C909        H918   1.080       .  S
C910        C913   1.492       .  S
C910        C911   1.404       .  A
C911        C912   1.396       .  A
C911        H919   1.083       .  S
C912        H920   1.083       .  S
C913        H921   1.087       .  S
C913        C914   1.351       .  D
C914        H922   1.083       .  S
C915        H923   1.087       .  S
C915        C916   1.347       .  D
C916        H924   1.084       .  S
C925        C933   1.495   1_655  S
C925        C926   1.405       .  A
C925        C930   1.410       .  A
C926        C927   1.402       .  A
C926        H935   1.083       .  S
C927        C928   1.407       .  A
C927        H936   1.082       .  S
C928        C931   1.488       .  S
C928        C929   1.402       .  A
C929        C930   1.399       .  A
C929        H937   1.084       .  S
C930        H938   1.080       .  S
C931        H939   1.087       .  S
C931        C932   1.348       .  D
C932        H940   1.086       .  S
C933        H941   1.087       .  S
C933        C934   1.347       .  D
C934        H942   1.084       .  S
C943        C951   1.496       .  S
C943        C944   1.404       .  A
C943        C948   1.411       .  A
C944        C945   1.399       .  A
C944        H953   1.083       .  S
C945        C946   1.408       .  A
C945        H954   1.082       .  S
C946        C949   1.494       .  S
C946        C947   1.404       .  A
C947        C948   1.404       .  A
C947        H955   1.083       .  S
C948        H956   1.081       .  S
C949        H957   1.087       .  S
C949        C950   1.347       .  D
C950        H958   1.086       .  S
C951        H959   1.087       .  S
C951        C952   1.348       .  D
C952        H960   1.084       .  S
