geometry optimzed in LAMMPS
_audit_creation_date              2020-11-30 
_audit_creation_method            'lammps2cif' 
_symmetry_space_group_name_H-M    'P1' 
_symmetry_Int_Tables_number       1 
_symmetry_cell_setting            triclinic 
loop_ 
_symmetry_equiv_pos_as_xyz 
  x,y,z 
_cell_length_a                    46.23517284 
_cell_length_b                    46.23152248801644 
_cell_length_c                    60.915734160501316 
_cell_angle_alpha                 89.99980523162797 
_cell_angle_beta                  89.99998752798359 
_cell_angle_gamma                 120.00589870077945 
loop_ 
_atom_site_label 
_atom_site_type_symbol 
_atom_site_fract_x 
_atom_site_fract_y 
_atom_site_fract_z 
_atom_site_charge 
Fe1        Fe  0.04985436  0.24957294  0.98982710     1.65800
Fe2        Fe  0.02263112  0.21928070  0.93795477     1.73200
Fe3        Fe  0.03710117  0.17228468  0.97520568     1.54400
O4          O  0.08098542  0.19636896  0.99339310    -0.80100
O5          O  0.48141277  0.17252722  0.93686711    -0.78400
O6          O  0.09122059  0.24787747  0.00016395    -0.82600
O7          O  0.01989147  0.21575086  0.01379771    -0.77500
O8          O  0.06582413  0.17642042  0.94815935    -0.79200
O9          O  0.99188955  0.23697025  0.94938860    -0.82000
C10         C  0.00502158  0.18417033  0.01608701     0.98800
C11         C  0.09907677  0.22541268  0.00120700     1.06200
O12         O  0.03648706  0.21369543  0.96767281    -1.11000
O13         O  0.06215028  0.26665395  0.93465562    -0.73400
O14         O  0.08105708  0.28703437  0.96811253    -0.76900
O15         O  0.00824502  0.16475873  0.00282498    -0.77600
C16         C  0.08225487  0.28952542  0.94731709     0.97700
O17         O  0.01064101  0.25699781  0.98287309    -0.75500
O18         O  0.05180707  0.20239654  0.92287584    -0.80700
C19         C  0.47529597  0.14443850  0.94408426     1.00300
C20         C  0.06736512  0.18753335  0.92888246     1.06200
O21         O  0.99373780  0.14081483  0.95792223    -0.76400
C22         C  0.99089744  0.25117028  0.96698764     1.04500
Fe23       Fe  0.24313143  0.44283966  0.84632366     1.65800
Fe24       Fe  0.27340384  0.47004156  0.89820286     1.73200
Fe25       Fe  0.32041054  0.45558957  0.86095224     1.54400
O26         O  0.29633035  0.41170182  0.84276599    -0.80100
O27         O  0.32015476  0.51126161  0.89930177    -0.78400
O28         O  0.24483219  0.40147592  0.83598125    -0.82600
O29         O  0.27695521  0.47281113  0.82235829    -0.77500
O30         O  0.31627976  0.42686669  0.88799892    -0.79200
O31         O  0.25571983  0.50078969  0.88677288    -0.82000
C32         C  0.30853230  0.48767382  0.82006882     0.98800
C33         C  0.26729294  0.39361553  0.83494441     1.06200
O34         O  0.27899959  0.45619902  0.86848258    -1.11000
O35         O  0.22603205  0.43051862  0.90149149    -0.73400
O36         O  0.20566492  0.41162624  0.86803011    -0.76900
O37         O  0.32793860  0.48444526  0.83333132    -0.77600
C38         C  0.20316580  0.41041983  0.88882496     0.97700
O39         O  0.23570478  0.48205263  0.85328381    -0.75500
O40         O  0.29028091  0.44085845  0.91327945    -0.80700
C41         C  0.34824345  0.01738868  0.89208076     1.00300
C42         C  0.30515715  0.42531319  0.90727386     1.06200
O43         O  0.35187116  0.49895768  0.87823588    -0.76400
C44         C  0.24152520  0.50178863  0.86917376     1.04500
Fe45       Fe  0.24323317  0.34886395  0.32314266     1.65800
Fe46       Fe  0.27356979  0.35198288  0.27128105     1.73200
Fe47       Fe  0.32055249  0.41339258  0.30857057     1.54400
O48         O  0.29648867  0.43318560  0.32678316    -0.80100
O49         O  0.32030457  0.35748124  0.27020855    -0.78400
O50         O  0.24495569  0.39192765  0.33350482    -0.82600
O51         O  0.27702890  0.35265688  0.34711911    -0.77500
O52         O  0.31644117  0.43803640  0.28154890    -0.79200
O53         O  0.25583561  0.30352347  0.28268751    -0.82000
C54         C  0.30861049  0.36933453  0.34941125     0.98800
C55         C  0.26743836  0.42224128  0.33457739     1.06200
O56         O  0.27913536  0.37138861  0.30100848    -1.11000
O57         O  0.22621856  0.34417591  0.26796266    -0.73400
O58         O  0.20580785  0.34267763  0.30141208    -0.76900
O59         O  0.32804035  0.39198729  0.33616370    -0.77600
C60         C  0.20334358  0.34142204  0.28061362     0.97700
O61         O  0.23577473  0.30221892  0.31616355    -0.75500
O62         O  0.29050704  0.39807803  0.25623385    -0.80700
C63         C  0.34839237  0.37945508  0.27742563     1.00300
C64         C  0.30535856  0.42849300  0.26226287     1.06200
O65         O  0.35201637  0.40151866  0.29126670    -0.76400
C66         C  0.24161363  0.28831357  0.30027759     1.04500
Fe67       Fe  0.04995658  0.34896030  0.17960211     1.65800
Fe68       Fe  0.02284874  0.35208605  0.23149852     1.73200
Fe69       Fe  0.03718401  0.41348370  0.19422088     1.54400
O70         O  0.08104154  0.43329459  0.17600746    -0.80100
O71         O  0.48161459  0.35758409  0.23262524    -0.78400
O72         O  0.09128542  0.39202983  0.16923067    -0.82600
O73         O  0.01992798  0.35275836  0.15565156    -0.77500
O74         O  0.06594313  0.43813235  0.22124147    -0.79200
O75         O  0.99210387  0.30363021  0.22010285    -0.82000
C76         C  0.00504025  0.36945043  0.15337102     0.98800
C77         C  0.09913135  0.42234943  0.16818739     1.06200
O78         O  0.03662112  0.37148586  0.20176346    -1.11000
O79         O  0.06240002  0.34428091  0.23476524    -0.73400
O80         O  0.08122638  0.34275678  0.20129263    -0.76900
O81         O  0.00828462  0.39210108  0.16662589    -0.77600
C82         C  0.08248197  0.34150680  0.22208843     0.97700
O83         O  0.01077107  0.30231841  0.18659734    -0.75500
O84         O  0.05203068  0.39817400  0.24653882    -0.80700
C85         C  0.47544964  0.37951801  0.22539974     1.00300
C86         C  0.06753988  0.42859106  0.24051674     1.06200
O87         O  0.99384116  0.40156538  0.21153399    -0.76400
C88         C  0.99107034  0.28841768  0.20250523     1.04500
Fe89       Fe  0.31418164  0.08473133  0.15656338     1.65800
Fe90       Fe  0.31729346  0.05761266  0.10466701     1.73200
Fe91       Fe  0.37870393  0.07197035  0.14193382     1.54400
O92         O  0.39851132  0.11583261  0.16014450    -0.80100
O93         O  0.32279006  0.01637519  0.10354591    -0.78400
O94         O  0.35724819  0.12607477  0.16692278    -0.82600
O95         O  0.31800447  0.05472049  0.18051576    -0.77500
O96         O  0.40333754  0.10072827  0.11490922    -0.79200
O97         O  0.26884363  0.02687118  0.11606950    -0.82000
C98         C  0.33469986  0.03983686  0.18279398     0.98800
C99         C  0.38756615  0.13392309  0.16796455     1.06200
O100        O  0.33670193  0.07139619  0.13439849    -1.11000
O101        O  0.30948777  0.09716449  0.10139940    -0.73400
O102        O  0.30795243  0.11598426  0.13487288    -0.76900
O103        O  0.35733929  0.04307460  0.16953290    -0.77600
C104        C  0.30670174  0.11723923  0.11407751     0.97700
O105        O  0.26754395  0.04553111  0.14958011    -0.75500
O106        O  0.36337273  0.08679087  0.08961644    -0.80700
C107        C  0.34473229  0.01022000  0.11076514     1.00300
C108        C  0.39378966  0.10231087  0.09563366     1.06200
O109        O  0.36678717  0.02862320  0.12462277    -0.76400
C110        C  0.25363806  0.02583396  0.13367069     1.04500
Fe111      Fe  0.31406313  0.27798197  0.01302325     1.65800
Fe112      Fe  0.31716752  0.30831773  0.06488455     1.73200
Fe113      Fe  0.37859374  0.35529819  0.02760499     1.54400
O114        O  0.39838704  0.33122520  0.00940226    -0.80100
O115        O  0.32268382  0.35506279  0.06595876    -0.78400
O116        O  0.35712338  0.27969949  0.00266336    -0.82600
O117        O  0.31786591  0.31178449  0.98904884    -0.77500
O118        O  0.40321867  0.35118126  0.05463545    -0.79200
O119        O  0.26871902  0.29060105  0.05346817    -0.82000
C120        C  0.33455484  0.34336746  0.98675578     0.98800
C121        C  0.38743889  0.30217607  0.00160077     1.06200
O122        O  0.33658381  0.31388299  0.03516063    -1.11000
O123        O  0.30933994  0.26095591  0.06820075    -0.73400
O124        O  0.30786793  0.24055180  0.03475230    -0.76900
O125        O  0.35720892  0.36279329  0.00000359    -0.77600
C126        C  0.30659414  0.23808224  0.05555011     0.97700
O127        O  0.26742022  0.27052527  0.01999756    -0.75500
O128        O  0.36325076  0.32523697  0.07994175    -0.80700
C129        C  0.34465854  0.38315042  0.05873992     1.00300
C130        C  0.39366693  0.34009059  0.07391932     1.06200
O131        O  0.36671953  0.38677002  0.04489978    -0.76400
C132        C  0.25351356  0.27637326  0.03587804     1.04500
Fe133      Fe  0.21470949  0.17861710  0.82314432     1.65800
Fe134      Fe  0.18437681  0.17550124  0.77128196     1.73200
Fe135      Fe  0.13739050  0.11409039  0.80857015     1.54400
O136        O  0.16145180  0.09429595  0.82678399    -0.80100
O137        O  0.13764279  0.17000487  0.77020848    -0.78400
O138        O  0.21298516  0.13555251  0.83350617    -0.82600
O139        O  0.18091239  0.17482368  0.84711984    -0.77500
O140        O  0.14150378  0.08944713  0.78154902    -0.79200
O141        O  0.20211224  0.22396073  0.78268883    -0.82000
C142        C  0.14933050  0.15814699  0.84941096     0.98800
C143        C  0.19050162  0.10523921  0.83457858     1.06200
O144        O  0.17880871  0.15609413  0.80100920    -1.11000
O145        O  0.23172741  0.18330604  0.76796474    -0.73400
O146        O  0.25213600  0.18480351  0.80141475    -0.76900
O147        O  0.12990105  0.13549545  0.83616276    -0.77600
C148        C  0.25460140  0.18605910  0.78061631     0.97700
O149        O  0.22216953  0.22526291  0.81616569    -0.75500
O150        O  0.16743867  0.12940621  0.75623430    -0.80700
C151        C  0.10955418  0.14803021  0.77742411     1.00300
C152        C  0.15258714  0.09899117  0.76226305     1.06200
O153        O  0.10592875  0.12596544  0.79126471    -0.76400
C154        C  0.21633278  0.23916950  0.80027956     1.04500
Fe155      Fe  0.40798599  0.17852134  0.67960306     1.65800
Fe156      Fe  0.43509605  0.17539375  0.73149848     1.73200
Fe157      Fe  0.42075959  0.11399765  0.69421953     1.54400
O158        O  0.37690066  0.09418704  0.67600754    -0.80100
O159        O  0.47633003  0.16989552  0.73262375    -0.78400
O160        O  0.36665643  0.13545198  0.66923205    -0.82600
O161        O  0.43801335  0.17472407  0.65565106    -0.77500
O162        O  0.39200233  0.08934793  0.72124067    -0.79200
O163        O  0.46584061  0.22384983  0.72010302    -0.82000
C164        C  0.45290076  0.15803204  0.65336947     0.98800
C165        C  0.35881032  0.10513244  0.66818841     1.06200
O166        O  0.42132252  0.15599505  0.70176332    -1.11000
O167        O  0.39554520  0.18319917  0.73476685    -0.73400
O168        O  0.37671733  0.18472433  0.70129496    -0.76900
O169        O  0.44965713  0.13538097  0.66662390    -0.77600
C170        C  0.37546279  0.18597377  0.72209088     0.97700
O171        O  0.44717201  0.22516292  0.68659819    -0.75500
O172        O  0.40591457  0.12930533  0.74653850    -0.80700
C173        C  0.48249559  0.14796275  0.72539706     1.00300
C174        C  0.39040579  0.09888842  0.74051620     1.06200
O175        O  0.46410388  0.12591602  0.71153100    -0.76400
C176        C  0.46687341  0.23906292  0.70250583     1.04500
Fe177      Fe  0.40808727  0.27791092  0.48982768     1.65800
Fe178      Fe  0.43531093  0.30820159  0.43795491     1.73200
Fe179      Fe  0.42084350  0.35520011  0.47520532     1.54400
O180        O  0.37695836  0.33111723  0.49339225    -0.80100
O181        O  0.47652992  0.35495467  0.43686614    -0.78400
O182        O  0.36672219  0.27960871  0.50016462    -0.82600
O183        O  0.43805133  0.31173279  0.51379802    -0.77500
O184        O  0.39212175  0.35106565  0.44815861    -0.79200
O185        O  0.46605161  0.29051098  0.44938908    -0.82000
C186        C  0.45292127  0.34331321  0.51608743     0.98800
C187        C  0.35886639  0.30207394  0.50120676     1.06200
O188        O  0.42145589  0.31378832  0.46767295    -1.11000
O189        O  0.39579095  0.26082876  0.43465645    -0.73400
O190        O  0.37688297  0.24044971  0.46811352    -0.76900
O191        O  0.44969849  0.36272519  0.50282521    -0.77600
C192        C  0.37568522  0.23795796  0.44731813     0.97700
O193        O  0.44729917  0.27048353  0.48287356    -0.75500
O194        O  0.40613557  0.32508618  0.42287574    -0.80700
C195        C  0.48264814  0.38304366  0.44408350     1.00300
C196        C  0.39057902  0.33995118  0.42888202     1.06200
O197        O  0.46420782  0.38666840  0.45792201    -0.76400
C198        C  0.46704265  0.27631020  0.46698812     1.04500
Fe199      Fe  0.21481322  0.08464362  0.34632206     1.65800
Fe200      Fe  0.18453802  0.05744158  0.39820072     1.73200
Fe201      Fe  0.13753297  0.07189312  0.36094852     1.54400
O202        O  0.16161358  0.11578012  0.34276142    -0.80100
O203        O  0.13778706  0.01622164  0.39929929    -0.78400
O204        O  0.21311239  0.12600664  0.33597836    -0.82600
O205        O  0.18099059  0.05467105  0.32235666    -0.77500
O206        O  0.14166285  0.10061698  0.38799447    -0.79200
O207        O  0.20222187  0.02669276  0.38677173    -0.82000
C208        C  0.14941332  0.03980737  0.32006682     0.98800
C209        C  0.19065133  0.13386667  0.33494035     1.06200
O210        O  0.17894378  0.07128412  0.36848010    -1.11000
O211        O  0.23190976  0.09696452  0.40148998    -0.73400
O212        O  0.25227842  0.11585807  0.36802898    -0.76900
O213        O  0.13000644  0.04303640  0.33332859    -0.77600
C214        C  0.25477643  0.11706417  0.38882396     0.97700
O215        O  0.22224011  0.04543113  0.35328335    -0.75500
O216        O  0.16766040  0.08662512  0.41327602    -0.80700
C217        C  0.10969898  0.01009389  0.39207814     1.00300
C218        C  0.15278453  0.10217060  0.40726962     1.06200
O219        O  0.10607145  0.02852558  0.37823262    -0.76400
C220        C  0.21641776  0.02569403  0.36917298     1.04500
Fe221      Fe  0.14376007  0.44274885  0.65656369     1.65800
Fe222      Fe  0.14064697  0.46986877  0.60466795     1.73200
Fe223      Fe  0.07923831  0.45551196  0.64193609     1.54400
O224        O  0.05943102  0.41164990  0.66014720    -0.80100
O225        O  0.13515096  0.51110658  0.60354734    -0.78400
O226        O  0.10069352  0.40140616  0.66692384    -0.82600
O227        O  0.13993944  0.47276049  0.68051647    -0.77500
O228        O  0.05460294  0.42675387  0.61491194    -0.79200
O229        O  0.18909724  0.50061014  0.61606983    -0.82000
C230        C  0.12324506  0.48764520  0.68279504     0.98800
C231        C  0.07037595  0.39355874  0.66796658     1.06200
O232        O  0.12123949  0.45608506  0.63439967    -1.11000
O233        O  0.14845199  0.43031656  0.60139953    -0.73400
O234        O  0.14998688  0.41149499  0.63487255    -0.76900
O235        O  0.10060521  0.48440796  0.66953463    -0.77600
C236        C  0.15123704  0.41024053  0.61407702     0.97700
O237        O  0.19039790  0.48194833  0.64957973    -0.75500
O238        O  0.09456675  0.44069072  0.58961835    -0.80700
C239        C  0.11320962  0.01726262  0.61076728     1.00300
C240        C  0.06415017  0.42517109  0.59563615     1.06200
O241        O  0.09115477  0.49885919  0.62462498    -0.76400
C242        C  0.20430346  0.50164663  0.63367070     1.04500
Fe243      Fe  0.14387548  0.24949735  0.51302133     1.65800
Fe244      Fe  0.14077299  0.21916345  0.56488308     1.73200
Fe245      Fe  0.07934766  0.17217963  0.52760381     1.54400
O246        O  0.05955181  0.19625042  0.50940102    -0.80100
O247        O  0.13525819  0.17241897  0.56595871    -0.78400
O248        O  0.10081381  0.24777674  0.50266128    -0.82600
O249        O  0.14007468  0.21569530  0.48904727    -0.77500
O250        O  0.05472185  0.17629513  0.55463432    -0.79200
O251        O  0.18922189  0.23688141  0.55346645    -0.82000
C252        C  0.12338655  0.18411220  0.48675413     0.98800
C253        C  0.07049869  0.22529934  0.50159915     1.06200
O254        O  0.12135640  0.21359633  0.53515909    -1.11000
O255        O  0.14859883  0.26652472  0.56819847    -0.73400
O256        O  0.15006821  0.28692723  0.53474983    -0.76900
O257        O  0.10073310  0.16468578  0.50000216    -0.77600
C258        C  0.15134253  0.28939751  0.55554763     0.97700
O259        O  0.19051961  0.25695704  0.51999584    -0.75500
O260        O  0.09468938  0.20224342  0.57994016    -0.80700
C261        C  0.11328502  0.14433097  0.55873989     1.00300
C262        C  0.06427333  0.18738778  0.57391781     1.06200
O263        O  0.09122440  0.14070981  0.54489892    -0.76400
C264        C  0.20442706  0.25110984  0.53587633     1.04500
C265        C  0.11244902  0.04548478  0.60159688    -0.16900
C266        C  0.11211372  0.06760447  0.59129397     0.07100
C267        C  0.11212972  0.09284959  0.57819008     0.09000
C268        C  0.11249243  0.11532359  0.56789399    -0.17800
C269        C  0.15549931  0.31907027  0.56588542    -0.16900
C270        C  0.15726009  0.34101357  0.57747696     0.07100
C271        C  0.15723206  0.36455227  0.59219742     0.09000
C272        C  0.15542779  0.38472429  0.60377361    -0.17800
C273        C  0.14788448  0.12222385  0.42325386    -0.16900
C274        C  0.14302453  0.13813241  0.43699762     0.07100
C275        C  0.13665346  0.15560627  0.45362064     0.09000
C276        C  0.13077632  0.16935644  0.46836854    -0.17800
C277        C  0.47502684  0.35807645  0.53448880    -0.16900
C278        C  0.49461486  0.37180282  0.54925922     0.07100
C279        C  0.51842314  0.38923730  0.56590696     0.09000
C280        C  0.03918087  0.40512235  0.57966142    -0.17800
C281        C  0.08069891  0.98187225  0.40123476    -0.16900
C282        C  0.05823095  0.45975478  0.41153251     0.07100
C283        C  0.03298994  0.43451591  0.42463440     0.09000
C284        C  0.51087010  0.41204788  0.43493032    -0.17800
C285        C  0.35019397  0.20825725  0.43699803    -0.16900
C286        C  0.33002171  0.18628540  0.42542117     0.07100
C287        C  0.30645879  0.16272753  0.41071210     0.09000
C288        C  0.28448143  0.14255681  0.39913818    -0.17800
C289        C  0.49136014  0.26581528  0.46949697    -0.16900
C290        C  0.50974564  0.25539895  0.47457225     0.07100
C291        C  0.53004042  0.24299572  0.48289361     0.09000
C292        C  0.04767731  0.23361981  0.49116264    -0.17800
C293        C  0.32772096  0.29374969  0.51164236    -0.16900
C294        C  0.30071745  0.28438530  0.51992485     0.07100
C295        C  0.26803403  0.27200291  0.52827156     0.09000
C296        C  0.23924011  0.26160106  0.53336537    -0.17800
C297        C  0.03930716  0.18248264  0.58989189    -0.16900
C298        C  0.51853195  0.17762962  0.60362857     0.07100
C299        C  0.49468348  0.17127394  0.62024545     0.09000
C300        C  0.47505359  0.16541079  0.63498948    -0.17800
C301        C  0.04754731  0.36241461  0.67839874    -0.16900
C302        C  0.52990095  0.33539627  0.68666016     0.07100
C303        C  0.50959266  0.30269048  0.69496748     0.09000
C304        C  0.49119514  0.27388127  0.70002507    -0.17800
C305        C  0.32766593  0.08230199  0.65775837    -0.16900
C306        C  0.30064368  0.06465846  0.64950312     0.07100
C307        C  0.26793264  0.04435652  0.64120470     0.09000
C308        C  0.23912119  0.52596503  0.63615186    -0.17800
C309        C  0.14767535  0.07401804  0.74629270    -0.16900
C310        C  0.14281995  0.05324474  0.73255379     0.07100
C311        C  0.13646518  0.52940491  0.71593020     0.09000
C312        C  0.13060840  0.50978616  0.70117991    -0.17800
C313        C  0.51071639  0.14720279  0.73456767    -0.16900
C314        C  0.03283535  0.14686671  0.74486974     0.07100
C315        C  0.05807949  0.14688076  0.75797192     0.09000
C316        C  0.08055154  0.14724122  0.76826764    -0.17800
C317        C  0.28427086  0.19020713  0.77027900    -0.16900
C318        C  0.30621471  0.19196558  0.75868965     0.07100
C319        C  0.32975974  0.19194305  0.74397190     0.09000
C320        C  0.34993840  0.19014952  0.73239648    -0.17800
C321        C  0.34549339  0.98199832  0.10159494    -0.16900
C322        C  0.34582853  0.45987819  0.09129069     0.07100
C323        C  0.34581390  0.43463314  0.07818794     0.09000
C324        C  0.34545174  0.41215845  0.06789283    -0.17800
C325        C  0.30250893  0.14275477  0.10377482    -0.16900
C326        C  0.30070314  0.16292635  0.09219941     0.07100
C327        C  0.30067433  0.18646533  0.07747939     0.09000
C328        C  0.30243559  0.20840884  0.06588813    -0.17800
C329        C  0.41863240  0.34499602  0.08989374    -0.16900
C330        C  0.43940759  0.34985022  0.10363089     0.07100
C331        C  0.46325604  0.35620755  0.12024787     0.09000
C332        C  0.98288649  0.36207173  0.13499177    -0.17800
C333        C  0.96674850  0.25359948  0.20002425    -0.16900
C334        C  0.44835061  0.22479051  0.19496612     0.07100
C335        C  0.42804170  0.19208531  0.18665823     0.09000
C336        C  0.41039482  0.16506726  0.17839653    -0.17800
C337        C  0.21881995  0.00151604  0.13615173    -0.16900
C338        C  0.19000856  0.98312504  0.14120348     0.07100
C339        C  0.15729721  0.96282324  0.14950149     0.09000
C340        C  0.13027504  0.44517995  0.15775676    -0.17800
C341        C  0.13464842  0.01770494  0.30166460    -0.16900
C342        C  0.12091996  0.99812247  0.28689127     0.07100
C343        C  0.10348242  0.97432112  0.27024101     0.09000
C344        C  0.08759356  0.45356632  0.25648629    -0.17800
C345        C  0.32336214  0.36193508  0.36779459    -0.16900
C346        C  0.33711868  0.35605879  0.38253868     0.07100
C347        C  0.35460469  0.34969550  0.39915648     0.09000
C348        C  0.37052243  0.34484387  0.41289747    -0.17800
C349        C  0.31027114  0.45346647  0.24629244    -0.16900
C350        C  0.31512772  0.97423990  0.23255353     0.07100
C351        C  0.32148205  0.99807842  0.21592981     0.09000
C352        C  0.32733833  0.01769673  0.20117906    -0.17800
C353        C  0.37739586  0.38024426  0.26827039    -0.16900
C354        C  0.39986782  0.38060373  0.25797540     0.07100
C355        C  0.42511156  0.38061593  0.24487352     0.09000
C356        C  0.44722957  0.38027843  0.23457142    -0.17800
C357        C  0.17367436  0.33727318  0.27027547    -0.16900
C358        C  0.15173077  0.33551448  0.25868576     0.07100
C359        C  0.12818583  0.33553715  0.24396803     0.09000
C360        C  0.10800689  0.33733090  0.23239304    -0.17800
C361        C  0.19897388  0.16501121  0.32450213    -0.16900
C362        C  0.20833725  0.19201534  0.31621831     0.07100
C363        C  0.22071884  0.22470052  0.30787257     0.09000
C364        C  0.23112079  0.25349755  0.30278205    -0.17800
C365        C  0.22691377  0.00137610  0.36667059    -0.16900
C366        C  0.23733407  0.98299169  0.36160063     0.07100
C367        C  0.24974293  0.96269949  0.35328366     0.09000
C368        C  0.25912092  0.44506382  0.34501609    -0.17800
C369        C  0.32329809  0.50977493  0.80166565    -0.16900
C370        C  0.33702623  0.52935589  0.78689175     0.07100
C371        C  0.35446434  0.05315598  0.77024053     0.09000
C372        C  0.37035292  0.07391252  0.75648568    -0.17800
C373        C  0.19881779  0.08241586  0.84501734    -0.16900
C374        C  0.20819644  0.06478027  0.85328496     0.07100
C375        C  0.22060663  0.04448885  0.86160125     0.09000
C376        C  0.23102743  0.52610536  0.86667136    -0.17800
C377        C  0.25897073  0.36247056  0.82450651    -0.16900
C378        C  0.24960825  0.33546706  0.81622248     0.07100
C379        C  0.23722754  0.30278220  0.80787583     0.09000
C380        C  0.22682606  0.27398575  0.80278455    -0.17800
C381        C  0.32716508  0.35812426  0.96837075    -0.16900
C382        C  0.32128768  0.37187555  0.95362378     0.07100
C383        C  0.31491643  0.38935074  0.93700177     0.09000
C384        C  0.31005665  0.40525998  0.92325842    -0.17800
C385        C  0.41875804  0.12235939  0.07965870    -0.16900
C386        C  0.43951640  0.13824493  0.06590433     0.07100
C387        C  0.46332564  0.15567977  0.04925757     0.09000
C388        C  0.98291512  0.16940678  0.03448774    -0.17800
C389        C  0.08742146  0.18264033  0.91289762    -0.16900
C390        C  0.10333796  0.17778791  0.89915644     0.07100
C391        C  0.12082265  0.17142336  0.88253816     0.09000
C392        C  0.13457840  0.16554645  0.86779407    -0.17800
C393        C  0.44707427  0.11543391  0.93493188    -0.16900
C394        C  0.42495352  0.09296560  0.92463639     0.07100
C395        C  0.39971180  0.06772737  0.91153498     0.09000
C396        C  0.37724337  0.04560994  0.90123756    -0.17800
C397        C  0.10774537  0.31922667  0.93699682    -0.16900
C398        C  0.12791747  0.34119879  0.92542029     0.07100
C399        C  0.15148135  0.36475714  0.91071173     0.09000
C400        C  0.17345974  0.38492774  0.89913851    -0.17800
C401        C  0.41025903  0.29385438  0.99116395    -0.16900
C402        C  0.42789589  0.28447895  0.98289437     0.07100
C403        C  0.44819155  0.27207743  0.97457231     0.09000
C404        C  0.96657842  0.26166297  0.96949656    -0.17800
C405        C  0.21870113  0.26588386  0.03336726    -0.16900
C406        C  0.18990759  0.25548319  0.02827332     0.07100
C407        C  0.15722479  0.24310172  0.01992616     0.09000
C408        C  0.13022182  0.23373755  0.01164314    -0.17800
Fe409      Fe  0.04985368  0.74957435  0.98982690     1.65800
Fe410      Fe  0.02263014  0.71928203  0.93795461     1.73200
Fe411      Fe  0.03710036  0.67228608  0.97520541     1.54400
O412        O  0.08098454  0.69637019  0.99339286    -0.80100
O413        O  0.48141157  0.67252874  0.93686717    -0.78400
O414        O  0.09121984  0.74787871  0.00016378    -0.82600
O415        O  0.01989068  0.71575230  0.01379747    -0.77500
O416        O  0.06582326  0.67642179  0.94815907    -0.79200
O417        O  0.99188886  0.73697185  0.94938844    -0.82000
C418        C  0.00502073  0.68417175  0.01608670     0.98800
C419        C  0.09907588  0.72541390  0.00120682     1.06200
O420        O  0.03648625  0.71369682  0.96767260    -1.11000
O421        O  0.06214946  0.76665508  0.93465536    -0.73400
O422        O  0.08105642  0.78703560  0.96811226    -0.76900
O423        O  0.00824419  0.66476017  0.00282468    -0.77600
C424        C  0.08225433  0.78952670  0.94731681     0.97700
O425        O  0.01064040  0.75699937  0.98287291    -0.75500
O426        O  0.05180568  0.70239749  0.92287555    -0.80700
C427        C  0.47529498  0.64443992  0.94408423     1.00300
C428        C  0.06736393  0.68753441  0.92888205     1.06200
O429        O  0.99373699  0.64081631  0.95792194    -0.76400
C430        C  0.99089687  0.75117195  0.96698759     1.04500
Fe431      Fe  0.24313171  0.94283939  0.84632317     1.65800
Fe432      Fe  0.27340405  0.97004148  0.89820237     1.73200
Fe433      Fe  0.32041050  0.95558869  0.86095204     1.54400
O434        O  0.29633006  0.91170090  0.84276580    -0.80100
O435        O  0.32015512  0.01126136  0.89930126    -0.78400
O436        O  0.24483209  0.90147545  0.83598089    -0.82600
O437        O  0.27695574  0.97281065  0.82235787    -0.77500
O438        O  0.31627919  0.92686575  0.88799878    -0.79200
O439        O  0.25572038  0.00078971  0.88677223    -0.82000
C440        C  0.30853293  0.98767322  0.82006843     0.98800
C441        C  0.26729276  0.89361475  0.83494416     1.06200
O442        O  0.27899974  0.95619860  0.86848219    -1.11000
O443        O  0.22603215  0.93051872  0.90149098    -0.73400
O444        O  0.20566504  0.91162623  0.86802961    -0.76900
O445        O  0.32793897  0.98444439  0.83333109    -0.77600
C446        C  0.20316586  0.91041991  0.88882447     0.97700
O447        O  0.23570534  0.98205256  0.85328315    -0.75500
O448        O  0.29028083  0.94085831  0.91327917    -0.80700
C449        C  0.34824303  0.51738930  0.89208099     1.00300
C450        C  0.30515671  0.92531266  0.90727375     1.06200
O451        O  0.35187131  0.99895666  0.87823573    -0.76400
C452        C  0.24152579  0.00178872  0.86917301     1.04500
Fe453      Fe  0.24323333  0.84886387  0.32314251     1.65800
Fe454      Fe  0.27357035  0.85198273  0.27128103     1.73200
Fe455      Fe  0.32055295  0.91339221  0.30857068     1.54400
O456        O  0.29648916  0.93318531  0.32678325    -0.80100
O457        O  0.32030506  0.85748092  0.27020868    -0.78400
O458        O  0.24495586  0.89192764  0.33350446    -0.82600
O459        O  0.27702879  0.85265679  0.34711920    -0.77500
O460        O  0.31644183  0.93803618  0.28154905    -0.79200
O461        O  0.25583607  0.80352336  0.28268750    -0.82000
C462        C  0.30861038  0.86933415  0.34941138     0.98800
C463        C  0.26743876  0.92224119  0.33457721     1.06200
O464        O  0.27913575  0.87138841  0.30100846    -1.11000
O465        O  0.22621919  0.84417584  0.26796244    -0.73400
O466        O  0.20580818  0.84267751  0.30141176    -0.76900
O467        O  0.32804049  0.89198667  0.33616380    -0.77600
C468        C  0.20334411  0.84142193  0.28061326     0.97700
O469        O  0.23577497  0.80221885  0.31616349    -0.75500
O470        O  0.29050780  0.89807796  0.25623388    -0.80700
C471        C  0.34839284  0.87945462  0.27742582     1.00300
C472        C  0.30535928  0.92849296  0.26226290     1.06200
O473        O  0.35201687  0.90151825  0.29126687    -0.76400
C474        C  0.24161393  0.78831349  0.30027770     1.04500
Fe475      Fe  0.04995656  0.84895947  0.17960164     1.65800
Fe476      Fe  0.02284885  0.85208460  0.23149823     1.73200
Fe477      Fe  0.03718385  0.91348257  0.19422094     1.54400
O478        O  0.08104145  0.93329386  0.17600752    -0.80100
O479        O  0.48161449  0.85758227  0.23262511    -0.78400
O480        O  0.09128528  0.89202921  0.16923020    -0.82600
O481        O  0.01992762  0.85275752  0.15565129    -0.77500
O482        O  0.06594299  0.93813100  0.22124153    -0.79200
O483        O  0.99210435  0.80362879  0.22010247    -0.82000
C484        C  0.00503993  0.86944963  0.15337100     0.98800
C485        C  0.09913123  0.92234879  0.16818724     1.06200
O486        O  0.03662109  0.87148472  0.20176323    -1.11000
O487        O  0.06240043  0.84427991  0.23476473    -0.73400
O488        O  0.08122663  0.84275601  0.20129200    -0.76900
O489        O  0.00828439  0.89210019  0.16662591    -0.77600
C490        C  0.08248242  0.84150601  0.22208777     0.97700
O491        O  0.01077133  0.80231739  0.18659681    -0.75500
O492        O  0.05203050  0.89817249  0.24653875    -0.80700
C493        C  0.47544947  0.87951628  0.22539983     1.00300
C494        C  0.06753963  0.92858945  0.24051684     1.06200
O495        O  0.99384100  0.90156387  0.21153420    -0.76400
C496        C  0.99107083  0.78841639  0.20250477     1.04500
Fe497      Fe  0.31418163  0.58473110  0.15656294     1.65800
Fe498      Fe  0.31729266  0.55761271  0.10466634     1.73200
Fe499      Fe  0.37870317  0.57196920  0.14193286     1.54400
O500        O  0.39851125  0.61583139  0.16014367    -0.80100
O501        O  0.32278954  0.51637537  0.10354439    -0.78400
O502        O  0.35724857  0.62607401  0.16692250    -0.82600
O503        O  0.31800398  0.55471962  0.18051501    -0.77500
O504        O  0.40333669  0.60072716  0.11490825    -0.79200
O505        O  0.26884313  0.52687087  0.11606909    -0.82000
C506        C  0.33469927  0.53983584  0.18279302     0.98800
C507        C  0.38756639  0.63392192  0.16796401     1.06200
O508        O  0.33670140  0.57139573  0.13439781    -1.11000
O509        O  0.30948655  0.59716438  0.10139932    -0.73400
O510        O  0.30795293  0.61598474  0.13487291    -0.76900
O511        O  0.35733847  0.54307337  0.16953197    -0.77600
C512        C  0.30670136  0.61723951  0.11407746     0.97700
O513        O  0.26754366  0.54553148  0.14957953    -0.75500
O514        O  0.36337173  0.58679147  0.08961579    -0.80700
C515        C  0.34473122  0.51021954  0.11076369     1.00300
C516        C  0.39378873  0.60231080  0.09563290     1.06200
O517        O  0.36678584  0.52862205  0.12462169    -0.76400
C518        C  0.25363769  0.52583400  0.13367019     1.04500
Fe519      Fe  0.31406204  0.77798222  0.01302380     1.65800
Fe520      Fe  0.31716621  0.80831790  0.06488507     1.73200
Fe521      Fe  0.37859257  0.85529834  0.02760568     1.54400
O522        O  0.39838564  0.83122558  0.00940249    -0.80100
O523        O  0.32268224  0.85506285  0.06595916    -0.78400
O524        O  0.35712226  0.77969955  0.00266415    -0.82600
O525        O  0.31786525  0.81178486  0.98904936    -0.77500
O526        O  0.40321749  0.85118079  0.05463593    -0.79200
O527        O  0.26871765  0.79060093  0.05346860    -0.82000
C528        C  0.33455394  0.84336798  0.98675653     0.98800
C529        C  0.38743765  0.80217643  0.00160125     1.06200
O530        O  0.33658260  0.81388317  0.03516122    -1.11000
O531        O  0.30933891  0.76095622  0.06820134    -0.73400
O532        O  0.30786646  0.74055195  0.03475288    -0.76900
O533        O  0.35720755  0.86279378  0.00000449    -0.77600
C534        C  0.30659292  0.73808244  0.05555069     0.97700
O535        O  0.26741915  0.77052575  0.01999785    -0.75500
O536        O  0.36324958  0.82523744  0.07994235    -0.80700
C537        C  0.34465754  0.88315049  0.05874081     1.00300
C538        C  0.39366557  0.84009045  0.07391986     1.06200
O539        O  0.36671884  0.88677011  0.04490090    -0.76400
C540        C  0.25351238  0.77637349  0.03587841     1.04500
Fe541      Fe  0.21470767  0.67861591  0.82314451     1.65800
Fe542      Fe  0.18437522  0.67550004  0.77128208     1.73200
Fe543      Fe  0.13738875  0.61408906  0.80857022     1.54400
O544        O  0.16144995  0.59429447  0.82678395    -0.80100
O545        O  0.13764107  0.67000324  0.77020832    -0.78400
O546        O  0.21298291  0.63555132  0.83350685    -0.82600
O547        O  0.18091041  0.67482311  0.84711974    -0.77500
O548        O  0.14150201  0.58944591  0.78154894    -0.79200
O549        O  0.20211009  0.72395944  0.78268898    -0.82000
C550        C  0.14932853  0.65814607  0.84941085     0.98800
C551        C  0.19049971  0.60523792  0.83457901     1.06200
O552        O  0.17880698  0.65609287  0.80100933    -1.11000
O553        O  0.23172612  0.68330541  0.76796510    -0.73400
O554        O  0.25213416  0.68480166  0.80141511    -0.76900
O555        O  0.12989926  0.63549408  0.83616292    -0.77600
C556        C  0.25459970  0.68605784  0.78061670     0.97700
O557        O  0.22216835  0.72526187  0.81616554    -0.75500
O558        O  0.16743769  0.62940516  0.75623441    -0.80700
C559        C  0.10955243  0.64802884  0.77742415     1.00300
C560        C  0.15258582  0.59898995  0.76226311     1.06200
O561        O  0.10592700  0.62596425  0.79126489    -0.76400
C562        C  0.21633116  0.73916832  0.80027951     1.04500
Fe563      Fe  0.40798505  0.67852160  0.67960309     1.65800
Fe564      Fe  0.43509489  0.67539417  0.73149860     1.73200
Fe565      Fe  0.42075874  0.61399804  0.69421976     1.54400
O566        O  0.37690003  0.59418739  0.67600755    -0.80100
O567        O  0.47632898  0.66989616  0.73262405    -0.78400
O568        O  0.36665558  0.63545219  0.66923211    -0.82600
O569        O  0.43801248  0.67472426  0.65565118    -0.77500
O570        O  0.39200123  0.58934832  0.72124083    -0.79200
O571        O  0.46583936  0.72385024  0.72010313    -0.82000
C572        C  0.45290008  0.65803230  0.65336975     0.98800
C573        C  0.35880964  0.60513269  0.66818840     1.06200
O574        O  0.42132156  0.65599542  0.70176345    -1.11000
O575        O  0.39554389  0.68319934  0.73476684    -0.73400
O576        O  0.37671626  0.68472462  0.70129490    -0.76900
O577        O  0.44965654  0.63538145  0.66662422    -0.77600
C578        C  0.37546147  0.68597390  0.72209073     0.97700
O579        O  0.44717102  0.72516318  0.68659816    -0.75500
O580        O  0.40591345  0.62930575  0.74653864    -0.80700
C581        C  0.48249445  0.64796313  0.72539741     1.00300
C582        C  0.39040467  0.59888882  0.74051630     1.06200
O583        O  0.46410287  0.62591650  0.71153148    -0.76400
C584        C  0.46687239  0.73906340  0.70250584     1.04500
Fe585      Fe  0.40808728  0.77791142  0.48982826     1.65800
Fe586      Fe  0.43531069  0.80820165  0.43795538     1.73200
Fe587      Fe  0.42084362  0.85520057  0.47520566     1.54400
O588        O  0.37695859  0.83111795  0.49339275    -0.80100
O589        O  0.47652962  0.85495473  0.43686632    -0.78400
O590        O  0.36672220  0.77960936  0.50016515    -0.82600
O591        O  0.43805136  0.81173345  0.51379851    -0.77500
O592        O  0.39212168  0.85106593  0.44815900    -0.79200
O593        O  0.46605152  0.79051127  0.44938960    -0.82000
C594        C  0.45292142  0.84331394  0.51608782     0.98800
C595        C  0.35886655  0.80207455  0.50120730     1.06200
O596        O  0.42145585  0.81378867  0.46767341    -1.11000
O597        O  0.39579072  0.76082870  0.43465715    -0.73400
O598        O  0.37688290  0.74044997  0.46811428    -0.76900
O599        O  0.44969875  0.86272584  0.50282550    -0.77600
C600        C  0.37568511  0.73795806  0.44731880     0.97700
O601        O  0.44729924  0.77048405  0.48287416    -0.75500
O602        O  0.40613508  0.82508600  0.42287622    -0.80700
C603        C  0.48264813  0.88304396  0.44408356     1.00300
C604        C  0.39057872  0.83995112  0.42888249     1.06200
O605        O  0.46420784  0.88666872  0.45792219    -0.76400
C606        C  0.46704269  0.77631062  0.46698875     1.04500
Fe607      Fe  0.21481316  0.58464371  0.34632272     1.65800
Fe608      Fe  0.18453779  0.55744169  0.39820134     1.73200
Fe609      Fe  0.13753306  0.57189363  0.36094912     1.54400
O610        O  0.16161383  0.61578045  0.34276187    -0.80100
O611        O  0.13778693  0.51622163  0.39929956    -0.78400
O612        O  0.21311281  0.62600710  0.33597930    -0.82600
O613        O  0.18099043  0.55467168  0.32235713    -0.77500
O614        O  0.14166314  0.60061772  0.38799497    -0.79200
O615        O  0.20222201  0.52669311  0.38677236    -0.82000
C616        C  0.14941322  0.53980798  0.32006735     0.98800
C617        C  0.19065174  0.63386704  0.33494106     1.06200
O618        O  0.17894372  0.57128438  0.36848073    -1.11000
O619        O  0.23190937  0.59696475  0.40149077    -0.73400
O620        O  0.25227849  0.61585765  0.36802976    -0.76900
O621        O  0.13000627  0.54303670  0.33332925    -0.77600
C622        C  0.25477632  0.61706407  0.38882478     0.97700
O623        O  0.22223942  0.54543078  0.35328375    -0.75500
O624        O  0.16765979  0.58662498  0.41327665    -0.80700
C625        C  0.10969896  0.51009429  0.39207859     1.00300
C626        C  0.15278444  0.60217081  0.40727027     1.06200
O627        O  0.10607143  0.52852629  0.37823332    -0.76400
C628        C  0.21641736  0.52569398  0.36917358     1.04500
Fe629      Fe  0.14375991  0.94274919  0.65656412     1.65800
Fe630      Fe  0.14064707  0.96986916  0.60466836     1.73200
Fe631      Fe  0.07923841  0.95551259  0.64193639     1.54400
O632        O  0.05943112  0.91165080  0.66014786    -0.80100
O633        O  0.13515176  0.01110733  0.60354787    -0.78400
O634        O  0.10069322  0.90140626  0.66692391    -0.82600
O635        O  0.13993885  0.97276048  0.68051694    -0.77500
O636        O  0.05460298  0.92675410  0.61491242    -0.79200
O637        O  0.18909754  0.00061005  0.61607027    -0.82000
C638        C  0.12324499  0.98764576  0.68279532     0.98800
C639        C  0.07037581  0.89355932  0.66796689     1.06200
O640        O  0.12123951  0.95608551  0.63440005    -1.11000
O641        O  0.14845147  0.93031661  0.60139989    -0.73400
O642        O  0.14998723  0.91149568  0.63487296    -0.76900
O643        O  0.10060553  0.98440902  0.66953468    -0.77600
C644        C  0.15123698  0.91024097  0.61407745     0.97700
O645        O  0.19039775  0.98194889  0.64958045    -0.75500
O646        O  0.09456678  0.94069163  0.58961872    -0.80700
C647        C  0.11320936  0.51726225  0.61076705     1.00300
C648        C  0.06415009  0.92517164  0.59563659     1.06200
O649        O  0.09115484  0.99885955  0.62462486    -0.76400
C650        C  0.20430344  0.00164677  0.63367121     1.04500
Fe651      Fe  0.14387578  0.74949786  0.51302201     1.65800
Fe652      Fe  0.14077309  0.71916412  0.56488385     1.73200
Fe653      Fe  0.07934779  0.67218028  0.52760455     1.54400
O654        O  0.05955205  0.69625121  0.50940173    -0.80100
O655        O  0.13525809  0.67241958  0.56595967    -0.78400
O656        O  0.10081422  0.74777738  0.50266182    -0.82600
O657        O  0.14007504  0.71569571  0.48904805    -0.77500
O658        O  0.05472201  0.67629587  0.55463504    -0.79200
O659        O  0.18922199  0.73688186  0.55346730    -0.82000
C660        C  0.12338676  0.68411259  0.48675492     0.98800
C661        C  0.07049894  0.72529992  0.50159981     1.06200
O662        O  0.12135657  0.71359695  0.53515983    -1.11000
O663        O  0.14859917  0.76652553  0.56819906    -0.73400
O664        O  0.15006852  0.78692786  0.53475038    -0.76900
O665        O  0.10073320  0.66468630  0.50000290    -0.77600
C666        C  0.15134290  0.78939813  0.55554818     0.97700
O667        O  0.19051987  0.75695756  0.51999666    -0.75500
O668        O  0.09468950  0.70224438  0.57994089    -0.80700
C669        C  0.11328494  0.64433141  0.55874079     1.00300
C670        C  0.06427336  0.68738864  0.57391847     1.06200
O671        O  0.09122449  0.64071046  0.54489969    -0.76400
C672        C  0.20442736  0.75111039  0.53587714     1.04500
C673        C  0.11244871  0.54548438  0.60159705    -0.16900
C674        C  0.11211350  0.56760462  0.59129428     0.07100
C675        C  0.11212959  0.59284978  0.57819083     0.09000
C676        C  0.11249235  0.61532425  0.56789479    -0.17800
C677        C  0.15549983  0.81907117  0.56588592    -0.16900
C678        C  0.15726058  0.84101427  0.57747736     0.07100
C679        C  0.15723238  0.86455301  0.59219793     0.09000
C680        C  0.15542793  0.88472472  0.60377404    -0.17800
C681        C  0.14788434  0.62222407  0.42325453    -0.16900
C682        C  0.14302447  0.63813258  0.43699836     0.07100
C683        C  0.13665353  0.65560648  0.45362147     0.09000
C684        C  0.13077651  0.66935671  0.46836935    -0.17800
C685        C  0.47502693  0.85807719  0.53448915    -0.16900
C686        C  0.49461500  0.87180361  0.54925963     0.07100
C687        C  0.51842312  0.88923799  0.56590731     0.09000
C688        C  0.03918093  0.90512306  0.57966185    -0.17800
C689        C  0.08069876  0.48187257  0.40123513    -0.16900
C690        C  0.05823094  0.95975443  0.41153227     0.07100
C691        C  0.03299000  0.93451588  0.42463419     0.09000
C692        C  0.51086986  0.91204785  0.43493029    -0.17800
C693        C  0.35019381  0.70825721  0.43699888    -0.16900
C694        C  0.33002153  0.68628524  0.42542202     0.07100
C695        C  0.30645870  0.66272736  0.41071299     0.09000
C696        C  0.28448128  0.64255658  0.39913899    -0.17800
C697        C  0.49136031  0.76581590  0.46949762    -0.16900
C698        C  0.50974593  0.75539970  0.47457292     0.07100
C699        C  0.53004083  0.74299653  0.48289427     0.09000
C700        C  0.04767766  0.73362067  0.49116328    -0.17800
C701        C  0.32772117  0.79375054  0.51164298    -0.16900
C702        C  0.30071769  0.78438613  0.51992559     0.07100
C703        C  0.26803438  0.77200366  0.52827240     0.09000
C704        C  0.23924031  0.76160163  0.53336629    -0.17800
C705        C  0.03930719  0.68248355  0.58989250    -0.16900
C706        C  0.51853181  0.67763038  0.60362907     0.07100
C707        C  0.49468307  0.67127447  0.62024587     0.09000
C708        C  0.47505305  0.66541119  0.63498979    -0.17800
C709        C  0.04754692  0.86241504  0.67839900    -0.16900
C710        C  0.52990036  0.83539672  0.68666030     0.07100
C711        C  0.50959183  0.80269094  0.69496750     0.09000
C712        C  0.49119405  0.77388156  0.70002507    -0.17800
C713        C  0.32766549  0.58230226  0.65775823    -0.16900
C714        C  0.30064324  0.56465860  0.64950278     0.07100
C715        C  0.26793251  0.54435669  0.64120425     0.09000
C716        C  0.23912144  0.02596509  0.63615243    -0.17800
C717        C  0.14767433  0.57401697  0.74629271    -0.16900
C718        C  0.14281925  0.55324383  0.73255373     0.07100
C719        C  0.13646551  0.02940565  0.71593037     0.09000
C720        C  0.13060845  0.00978674  0.70118011    -0.17800
C721        C  0.51071523  0.64720322  0.73456821    -0.16900
C722        C  0.03283395  0.64686669  0.74487017     0.07100
C723        C  0.05807797  0.64688012  0.75797224     0.09000
C724        C  0.08054986  0.64724013  0.76826781    -0.17800
C725        C  0.28426939  0.69020597  0.77027930    -0.16900
C726        C  0.30621300  0.69196464  0.75868988     0.07100
C727        C  0.32975817  0.69194251  0.74397183     0.09000
C728        C  0.34993682  0.69014935  0.73239638    -0.17800
C729        C  0.34549223  0.48199786  0.10159323    -0.16900
C730        C  0.34582935  0.95987848  0.09129235     0.07100
C731        C  0.34581402  0.93463334  0.07818940     0.09000
C732        C  0.34545126  0.91215857  0.06789403    -0.17800
C733        C  0.30250855  0.64275503  0.10377513    -0.16900
C734        C  0.30070255  0.66292681  0.09219976     0.07100
C735        C  0.30067345  0.68646559  0.07747995     0.09000
C736        C  0.30243450  0.70840920  0.06588868    -0.17800
C737        C  0.41863123  0.84499575  0.08989437    -0.16900
C738        C  0.43940633  0.84984979  0.10363125     0.07100
C739        C  0.46325532  0.85620703  0.12024819     0.09000
C740        C  0.98288578  0.86207097  0.13499177    -0.17800
C741        C  0.96674931  0.75359811  0.20002381    -0.16900
C742        C  0.44835150  0.72478913  0.19496573     0.07100
C743        C  0.42804248  0.69208383  0.18665782     0.09000
C744        C  0.41039551  0.66506601  0.17839613    -0.17800
C745        C  0.21881965  0.50151622  0.13615138    -0.16900
C746        C  0.19000826  0.48312521  0.14120321     0.07100
C747        C  0.15729711  0.46282354  0.14950134     0.09000
C748        C  0.13027509  0.94517959  0.15775674    -0.17800
C749        C  0.13464828  0.51770580  0.30166493    -0.16900
C750        C  0.12092000  0.49812371  0.28689146     0.07100
C751        C  0.10348262  0.47432262  0.27024097     0.09000
C752        C  0.08759329  0.95356472  0.25648640    -0.17800
C753        C  0.32336176  0.86193461  0.36779488    -0.16900
C754        C  0.33711811  0.85605836  0.38253905     0.07100
C755        C  0.35460415  0.84969514  0.39915700     0.09000
C756        C  0.37052186  0.84484368  0.41289792    -0.17800
C757        C  0.31027184  0.95346639  0.24629272    -0.16900
C758        C  0.31512696  0.47423943  0.23255322     0.07100
C759        C  0.32148137  0.49807778  0.21592901     0.09000
C760        C  0.32733760  0.51769556  0.20117828    -0.17800
C761        C  0.37739629  0.88024355  0.26827069    -0.16900
C762        C  0.39986809  0.88060259  0.25797573     0.07100
C763        C  0.42511157  0.88061432  0.24487385     0.09000
C764        C  0.44722947  0.88027662  0.23457166    -0.17800
C765        C  0.17367496  0.83727302  0.27027499    -0.16900
C766        C  0.15173143  0.83551422  0.25868513     0.07100
C767        C  0.12818656  0.83553677  0.24396729     0.09000
C768        C  0.10800754  0.83733036  0.23239228    -0.17800
C769        C  0.19897440  0.66501156  0.32450277    -0.16900
C770        C  0.20833777  0.69201558  0.31621879     0.07100
C771        C  0.22071933  0.72470061  0.30787284     0.09000
C772        C  0.23112123  0.75349753  0.30278218    -0.17800
C773        C  0.22691333  0.50137591  0.36667114    -0.16900
C774        C  0.23733355  0.48299155  0.36160114     0.07100
C775        C  0.24974244  0.46269936  0.35328403     0.09000
C776        C  0.25912139  0.94506383  0.34501581    -0.17800
C777        C  0.32329886  0.00977419  0.80166543    -0.16900
C778        C  0.33702731  0.02935539  0.78689143     0.07100
C779        C  0.35446327  0.55315656  0.77024066     0.09000
C780        C  0.37035171  0.57391290  0.75648587    -0.17800
C781        C  0.19881583  0.58241473  0.84501787    -0.16900
C782        C  0.20819478  0.56477936  0.85328563     0.07100
C783        C  0.22060539  0.54448833  0.86160202     0.09000
C784        C  0.23102838  0.02610554  0.86667057    -0.17800
C785        C  0.25897024  0.86246973  0.82450635    -0.16900
C786        C  0.24960746  0.83546607  0.81622236     0.07100
C787        C  0.23722641  0.80278116  0.80787575     0.09000
C788        C  0.22682467  0.77398468  0.80278449    -0.17800
C789        C  0.32716421  0.85812465  0.96837141    -0.16900
C790        C  0.32128689  0.87187572  0.95362427     0.07100
C791        C  0.31491573  0.88935057  0.93700202     0.09000
C792        C  0.31005604  0.90525960  0.92325843    -0.17800
C793        C  0.41875707  0.62235980  0.07965806    -0.16900
C794        C  0.43951532  0.63824570  0.06590382     0.07100
C795        C  0.46332468  0.65568101  0.04925706     0.09000
C796        C  0.98291411  0.66940812  0.03448738    -0.17800
C797        C  0.08741987  0.68264111  0.91289716    -0.16900
C798        C  0.10333614  0.67778830  0.89915590     0.07100
C799        C  0.12082059  0.67142324  0.88253770     0.09000
C800        C  0.13457625  0.66554591  0.86779379    -0.17800
C801        C  0.44707325  0.61543538  0.93493184    -0.16900
C802        C  0.42495268  0.59296703  0.92463643     0.07100
C803        C  0.39971103  0.56772851  0.91153499     0.09000
C804        C  0.37724294  0.54561101  0.90123771    -0.17800
C805        C  0.10774481  0.81922753  0.93699653    -0.16900
C806        C  0.12791729  0.84119964  0.92541984     0.07100
C807        C  0.15148117  0.86475751  0.91071132     0.09000
C808        C  0.17345978  0.88492803  0.89913800    -0.17800
C809        C  0.41025786  0.79385491  0.99116424    -0.16900
C810        C  0.42789482  0.78447986  0.98289458     0.07100
C811        C  0.44819084  0.77207870  0.97457236     0.09000
C812        C  0.96657778  0.76166453  0.96949650    -0.17800
C813        C  0.21869986  0.76588409  0.03336748    -0.16900
C814        C  0.18990654  0.75548366  0.02827344     0.07100
C815        C  0.15722369  0.74310245  0.01992612     0.09000
C816        C  0.13022093  0.73373856  0.01164308    -0.17800
Fe817      Fe  0.54985434  0.24957294  0.98982710     1.65800
Fe818      Fe  0.52263109  0.21928070  0.93795477     1.73200
Fe819      Fe  0.53710117  0.17228469  0.97520567     1.54400
O820        O  0.58098545  0.19636900  0.99339308    -0.80100
O821        O  0.98141281  0.17252722  0.93686709    -0.78400
O822        O  0.59122057  0.24787747  0.00016397    -0.82600
O823        O  0.51989144  0.21575086  0.01379768    -0.77500
O824        O  0.56582410  0.17642043  0.94815934    -0.79200
O825        O  0.49188953  0.23697025  0.94938861    -0.82000
C826        C  0.50502154  0.18417032  0.01608705     0.98800
C827        C  0.59907672  0.22541265  0.00120698     1.06200
O828        O  0.53648704  0.21369543  0.96767281    -1.11000
O829        O  0.56215024  0.26665394  0.93465562    -0.73400
O830        O  0.58105707  0.28703435  0.96811253    -0.76900
O831        O  0.50824507  0.16475873  0.00282497    -0.77600
C832        C  0.58225487  0.28952542  0.94731709     0.97700
O833        O  0.51064101  0.25699782  0.98287309    -0.75500
O834        O  0.55180698  0.20239655  0.92287584    -0.80700
C835        C  0.97529600  0.14443849  0.94408425     1.00300
C836        C  0.56736515  0.18753330  0.92888242     1.06200
O837        O  0.49373779  0.14081484  0.95792224    -0.76400
C838        C  0.49089740  0.25117028  0.96698762     1.04500
Fe839      Fe  0.74313144  0.44283967  0.84632366     1.65800
Fe840      Fe  0.77340387  0.47004157  0.89820286     1.73200
Fe841      Fe  0.82041054  0.45558956  0.86095224     1.54400
O842        O  0.79633027  0.41170178  0.84276597    -0.80100
O843        O  0.82015477  0.51126163  0.89930176    -0.78400
O844        O  0.74483211  0.40147592  0.83598125    -0.82600
O845        O  0.77695522  0.47281113  0.82235829    -0.77500
O846        O  0.81627973  0.42686665  0.88799892    -0.79200
O847        O  0.75571984  0.50078967  0.88677290    -0.82000
C848        C  0.80853233  0.48767383  0.82006881     0.98800
C849        C  0.76729301  0.39361554  0.83494442     1.06200
O850        O  0.77899959  0.45619901  0.86848258    -1.11000
O851        O  0.72603208  0.43051859  0.90149149    -0.73400
O852        O  0.70566491  0.41162626  0.86803012    -0.76900
O853        O  0.82793861  0.48444525  0.83333133    -0.77600
C854        C  0.70316585  0.41041985  0.88882496     0.97700
O855        O  0.73570481  0.48205265  0.85328380    -0.75500
O856        O  0.79028096  0.44085848  0.91327946    -0.80700
C857        C  0.84824343  0.01738867  0.89208075     1.00300
C858        C  0.80515719  0.42531317  0.90727386     1.06200
O859        O  0.85187116  0.49895765  0.87823589    -0.76400
C860        C  0.74152521  0.50178866  0.86917374     1.04500
Fe861      Fe  0.74323317  0.34886395  0.32314266     1.65800
Fe862      Fe  0.77356979  0.35198288  0.27128105     1.73200
Fe863      Fe  0.82055248  0.41339258  0.30857057     1.54400
O864        O  0.79648865  0.43318557  0.32678318    -0.80100
O865        O  0.82030457  0.35748124  0.27020857    -0.78400
O866        O  0.74495565  0.39192761  0.33350480    -0.82600
O867        O  0.77702889  0.35265690  0.34711913    -0.77500
O868        O  0.81644111  0.43803639  0.28154892    -0.79200
O869        O  0.75583561  0.30352347  0.28268749    -0.82000
C870        C  0.80861053  0.36933457  0.34941125     0.98800
C871        C  0.76743834  0.42224128  0.33457740     1.06200
O872        O  0.77913536  0.37138861  0.30100847    -1.11000
O873        O  0.72621857  0.34417592  0.26796265    -0.73400
O874        O  0.70580784  0.34267759  0.30141207    -0.76900
O875        O  0.82804035  0.39198726  0.33616370    -0.77600
C876        C  0.70334360  0.34142203  0.28061363     0.97700
O877        O  0.73577478  0.30221893  0.31616356    -0.75500
O878        O  0.79050707  0.39807803  0.25623384    -0.80700
C879        C  0.84839238  0.37945506  0.27742560     1.00300
C880        C  0.80535854  0.42849302  0.26226286     1.06200
O881        O  0.85201635  0.40151871  0.29126669    -0.76400
C882        C  0.74161363  0.28831356  0.30027762     1.04500
Fe883      Fe  0.54995661  0.34896032  0.17960211     1.65800
Fe884      Fe  0.52284875  0.35208605  0.23149851     1.73200
Fe885      Fe  0.53718401  0.41348369  0.19422088     1.54400
O886        O  0.58104151  0.43329459  0.17600745    -0.80100
O887        O  0.98161461  0.35758411  0.23262524    -0.78400
O888        O  0.59128545  0.39202986  0.16923067    -0.82600
O889        O  0.51992797  0.35275838  0.15565156    -0.77500
O890        O  0.56594316  0.43813234  0.22124146    -0.79200
O891        O  0.49210390  0.30363021  0.22010285    -0.82000
C892        C  0.50504029  0.36945038  0.15337104     0.98800
C893        C  0.59913137  0.42234943  0.16818738     1.06200
O894        O  0.53662113  0.37148586  0.20176346    -1.11000
O895        O  0.56240006  0.34428092  0.23476524    -0.73400
O896        O  0.58122643  0.34275679  0.20129264    -0.76900
O897        O  0.50828460  0.39210107  0.16662591    -0.77600
C898        C  0.58248196  0.34150682  0.22208841     0.97700
O899        O  0.51077111  0.30231841  0.18659734    -0.75500
O900        O  0.55203067  0.39817400  0.24653883    -0.80700
C901        C  0.97544955  0.37951800  0.22539976     1.00300
C902        C  0.56753987  0.42859104  0.24051674     1.06200
O903        O  0.49384117  0.40156538  0.21153403    -0.76400
C904        C  0.49107041  0.28841769  0.20250521     1.04500
Fe905      Fe  0.81418160  0.08473133  0.15656338     1.65800
Fe906      Fe  0.81729344  0.05761265  0.10466701     1.73200
Fe907      Fe  0.87870390  0.07197036  0.14193382     1.54400
O908        O  0.89851127  0.11583263  0.16014451    -0.80100
O909        O  0.82279003  0.01637518  0.10354589    -0.78400
O910        O  0.85724812  0.12607476  0.16692279    -0.82600
O911        O  0.81800439  0.05472050  0.18051577    -0.77500
O912        O  0.90333750  0.10072829  0.11490921    -0.79200
O913        O  0.76884362  0.02687118  0.11606949    -0.82000
C914        C  0.83469987  0.03983685  0.18279396     0.98800
C915        C  0.88756611  0.13392307  0.16796455     1.06200
O916        O  0.83670188  0.07139618  0.13439849    -1.11000
O917        O  0.80948774  0.09716448  0.10139940    -0.73400
O918        O  0.80795239  0.11598426  0.13487288    -0.76900
O919        O  0.85733921  0.04307460  0.16953292    -0.77600
C920        C  0.80670171  0.11723923  0.11407751     0.97700
O921        O  0.76754391  0.04553112  0.14958010    -0.75500
O922        O  0.86337269  0.08679085  0.08961643    -0.80700
C923        C  0.84473230  0.01022002  0.11076515     1.00300
C924        C  0.89378964  0.10231087  0.09563367     1.06200
O925        O  0.86678713  0.02862320  0.12462277    -0.76400
C926        C  0.75363799  0.02583395  0.13367070     1.04500
Fe927      Fe  0.81406314  0.27798197  0.01302325     1.65800
Fe928      Fe  0.81716754  0.30831773  0.06488455     1.73200
Fe929      Fe  0.87859375  0.35529819  0.02760500     1.54400
O930        O  0.89838704  0.33122519  0.00940225    -0.80100
O931        O  0.82268386  0.35506283  0.06595876    -0.78400
O932        O  0.85712337  0.27969947  0.00266336    -0.82600
O933        O  0.81786592  0.31178449  0.98904884    -0.77500
O934        O  0.90321872  0.35118127  0.05463545    -0.79200
O935        O  0.76871904  0.29060104  0.05346817    -0.82000
C936        C  0.83455489  0.34336748  0.98675579     0.98800
C937        C  0.88743891  0.30217604  0.00160075     1.06200
O938        O  0.83658383  0.31388300  0.03516063    -1.11000
O939        O  0.80933997  0.26095590  0.06820074    -0.73400
O940        O  0.80786793  0.24055180  0.03475229    -0.76900
O941        O  0.85720894  0.36279328  0.00000359    -0.77600
C942        C  0.80659416  0.23808228  0.05555010     0.97700
O943        O  0.76742024  0.27052529  0.01999755    -0.75500
O944        O  0.86325085  0.32523699  0.07994175    -0.80700
C945        C  0.84465853  0.38315036  0.05873993     1.00300
C946        C  0.89366684  0.34009054  0.07391929     1.06200
O947        O  0.86671957  0.38677004  0.04489979    -0.76400
C948        C  0.75351359  0.27637329  0.03587807     1.04500
Fe949      Fe  0.71470948  0.17861707  0.82314432     1.65800
Fe950      Fe  0.68437679  0.17550124  0.77128197     1.73200
Fe951      Fe  0.63739048  0.11409039  0.80857016     1.54400
O952        O  0.66145174  0.09429593  0.82678401    -0.80100
O953        O  0.63764279  0.17000486  0.77020845    -0.78400
O954        O  0.71298513  0.13555246  0.83350615    -0.82600
O955        O  0.68091238  0.17482365  0.84711985    -0.77500
O956        O  0.64150374  0.08944713  0.78154902    -0.79200
O957        O  0.70211221  0.22396073  0.78268886    -0.82000
C958        C  0.64933051  0.15814703  0.84941098     0.98800
C959        C  0.69050163  0.10523922  0.83457858     1.06200
O960        O  0.67880869  0.15609412  0.80100921    -1.11000
O961        O  0.73172743  0.18330609  0.76796474    -0.73400
O962        O  0.75213599  0.18480348  0.80141474    -0.76900
O963        O  0.62990103  0.13549548  0.83616275    -0.77600
C964        C  0.75460136  0.18605911  0.78061634     0.97700
O965        O  0.72216956  0.22526289  0.81616570    -0.75500
O966        O  0.66743869  0.12940621  0.75623431    -0.80700
C967        C  0.60955417  0.14803018  0.77742412     1.00300
C968        C  0.65258714  0.09899116  0.76226306     1.06200
O969        O  0.60592874  0.12596546  0.79126471    -0.76400
C970        C  0.71633276  0.23916948  0.80027955     1.04500
Fe971      Fe  0.90798597  0.17852135  0.67960305     1.65800
Fe972      Fe  0.93509602  0.17539374  0.73149848     1.73200
Fe973      Fe  0.92075957  0.11399764  0.69421953     1.54400
O974        O  0.87690060  0.09418704  0.67600757    -0.80100
O975        O  0.97632998  0.16989551  0.73262376    -0.78400
O976        O  0.86665645  0.13545202  0.66923202    -0.82600
O977        O  0.93801339  0.17472409  0.65565106    -0.77500
O978        O  0.89200234  0.08934793  0.72124068    -0.79200
O979        O  0.96584059  0.22384982  0.72010304    -0.82000
C980        C  0.95290068  0.15803205  0.65336948     0.98800
C981        C  0.85881030  0.10513241  0.66818842     1.06200
O982        O  0.92132249  0.15599505  0.70176332    -1.11000
O983        O  0.89554517  0.18319917  0.73476685    -0.73400
O984        O  0.87671731  0.18472432  0.70129496    -0.76900
O985        O  0.94965707  0.13538093  0.66662387    -0.77600
C986        C  0.87546276  0.18597376  0.72209083     0.97700
O987        O  0.94717200  0.22516294  0.68659821    -0.75500
O988        O  0.90591451  0.12930532  0.74653850    -0.80700
C989        C  0.98249564  0.14796275  0.72539707     1.00300
C990        C  0.89040580  0.09888845  0.74051621     1.06200
O991        O  0.96410386  0.12591605  0.71153098    -0.76400
C992        C  0.96687337  0.23906291  0.70250583     1.04500
Fe993      Fe  0.90808731  0.27791091  0.48982768     1.65800
Fe994      Fe  0.93531098  0.30820158  0.43795491     1.73200
Fe995      Fe  0.92084354  0.35520010  0.47520532     1.54400
O996        O  0.87695839  0.33111724  0.49339227    -0.80100
O997        O  0.97652996  0.35495467  0.43686615    -0.78400
O998        O  0.86672220  0.27960873  0.50016462    -0.82600
O999        O  0.93805136  0.31173278  0.51379802    -0.77500
O1000       O  0.89212177  0.35106564  0.44815863    -0.79200
O1001       O  0.96605166  0.29051099  0.44938908    -0.82000
C1002       C  0.95292131  0.34331321  0.51608742     0.98800
C1003       C  0.85886649  0.30207392  0.50120673     1.06200
O1004       O  0.92145592  0.31378832  0.46767295    -1.11000
O1005       O  0.89579101  0.26082875  0.43465645    -0.73400
O1006       O  0.87688301  0.24044969  0.46811351    -0.76900
O1007       O  0.94969856  0.36272519  0.50282520    -0.77600
C1008       C  0.87568529  0.23795795  0.44731813     0.97700
O1009       O  0.94729922  0.27048354  0.48287356    -0.75500
O1010       O  0.90613559  0.32508620  0.42287575    -0.80700
C1011       C  0.98264821  0.38304367  0.44408348     1.00300
C1012       C  0.89057906  0.33995115  0.42888201     1.06200
O1013       O  0.96420783  0.38666840  0.45792202    -0.76400
C1014       C  0.96704271  0.27631021  0.46698812     1.04500
Fe1015     Fe  0.71481323  0.08464363  0.34632207     1.65800
Fe1016     Fe  0.68453801  0.05744158  0.39820073     1.73200
Fe1017     Fe  0.63753297  0.07189312  0.36094851     1.54400
O1018       O  0.66161353  0.11578010  0.34276142    -0.80100
O1019       O  0.63778704  0.01622162  0.39929927    -0.78400
O1020       O  0.71311235  0.12600664  0.33597836    -0.82600
O1021       O  0.68099061  0.05467105  0.32235667    -0.77500
O1022       O  0.64166279  0.10061697  0.38799444    -0.79200
O1023       O  0.70222187  0.02669275  0.38677172    -0.82000
C1024       C  0.64941334  0.03980736  0.32006683     0.98800
C1025       C  0.69065138  0.13386668  0.33494034     1.06200
O1026       O  0.67894378  0.07128413  0.36848011    -1.11000
O1027       O  0.73190975  0.09696453  0.40148999    -0.73400
O1028       O  0.75227842  0.11585809  0.36802899    -0.76900
O1029       O  0.63000645  0.04303638  0.33332859    -0.77600
C1030       C  0.75477643  0.11706419  0.38882397     0.97700
O1031       O  0.72224015  0.04543116  0.35328337    -0.75500
O1032       O  0.66766035  0.08662512  0.41327600    -0.80700
C1033       C  0.60969899  0.01009388  0.39207814     1.00300
C1034       C  0.65278450  0.10217056  0.40726962     1.06200
O1035       O  0.60607144  0.02852559  0.37823261    -0.76400
C1036       C  0.71641774  0.02569409  0.36917302     1.04500
Fe1037     Fe  0.64376010  0.44274885  0.65656369     1.65800
Fe1038     Fe  0.64064697  0.46986878  0.60466795     1.73200
Fe1039     Fe  0.57923833  0.45551195  0.64193611     1.54400
O1040       O  0.55943107  0.41164989  0.66014720    -0.80100
O1041       O  0.63515096  0.51110658  0.60354732    -0.78400
O1042       O  0.60069358  0.40140616  0.66692385    -0.82600
O1043       O  0.63993951  0.47276049  0.68051647    -0.77500
O1044       O  0.55460296  0.42675387  0.61491194    -0.79200
O1045       O  0.68909726  0.50061019  0.61606985    -0.82000
C1046       C  0.62324514  0.48764521  0.68279506     0.98800
C1047       C  0.57037600  0.39355873  0.66796659     1.06200
O1048       O  0.62123950  0.45608506  0.63439967    -1.11000
O1049       O  0.64845200  0.43031659  0.60139952    -0.73400
O1050       O  0.64998689  0.41149499  0.63487253    -0.76900
O1051       O  0.60060526  0.48440795  0.66953464    -0.77600
C1052       C  0.65123704  0.41024053  0.61407701     0.97700
O1053       O  0.69039794  0.48194833  0.64957971    -0.75500
O1054       O  0.59456677  0.44069074  0.58961835    -0.80700
C1055       C  0.61320966  0.01726263  0.61076724     1.00300
C1056       C  0.56415010  0.42517106  0.59563618     1.06200
O1057       O  0.59115479  0.49885922  0.62462497    -0.76400
C1058       C  0.70430339  0.50164660  0.63367066     1.04500
Fe1059     Fe  0.64387549  0.24949735  0.51302133     1.65800
Fe1060     Fe  0.64077299  0.21916345  0.56488307     1.73200
Fe1061     Fe  0.57934765  0.17217965  0.52760381     1.54400
O1062       O  0.55955182  0.19625044  0.50940102    -0.80100
O1063       O  0.63525817  0.17241897  0.56595871    -0.78400
O1064       O  0.60081383  0.24777676  0.50266126    -0.82600
O1065       O  0.64007471  0.21569531  0.48904728    -0.77500
O1066       O  0.55472184  0.17629513  0.55463430    -0.79200
O1067       O  0.68922187  0.23688138  0.55346645    -0.82000
C1068       C  0.62338658  0.18411220  0.48675413     0.98800
C1069       C  0.57049865  0.22529933  0.50159914     1.06200
O1070       O  0.62135639  0.21359634  0.53515909    -1.11000
O1071       O  0.64859885  0.26652474  0.56819847    -0.73400
O1072       O  0.65006818  0.28692723  0.53474984    -0.76900
O1073       O  0.60073311  0.16468580  0.50000217    -0.77600
C1074       C  0.65134251  0.28939746  0.55554760     0.97700
O1075       O  0.69051960  0.25695705  0.51999584    -0.75500
O1076       O  0.59468936  0.20224343  0.57994015    -0.80700
C1077       C  0.61328498  0.14433092  0.55873990     1.00300
C1078       C  0.56427336  0.18738782  0.57391783     1.06200
O1079       O  0.59122438  0.14070983  0.54489891    -0.76400
C1080       C  0.70442712  0.25110983  0.53587635     1.04500
C1081       C  0.61244895  0.04548471  0.60159690    -0.16900
C1082       C  0.61211363  0.06760447  0.59129395     0.07100
C1083       C  0.61212963  0.09284951  0.57819011     0.09000
C1084       C  0.61249235  0.11532360  0.56789399    -0.17800
C1085       C  0.65549930  0.31907032  0.56588544    -0.16900
C1086       C  0.65726003  0.34101350  0.57747693     0.07100
C1087       C  0.65723199  0.36455226  0.59219741     0.09000
C1088       C  0.65542775  0.38472427  0.60377358    -0.17800
C1089       C  0.64788442  0.12222384  0.42325385    -0.16900
C1090       C  0.64302450  0.13813240  0.43699761     0.07100
C1091       C  0.63665347  0.15560626  0.45362064     0.09000
C1092       C  0.63077635  0.16935645  0.46836857    -0.17800
C1093       C  0.97502691  0.35807646  0.53448880    -0.16900
C1094       C  0.99461489  0.37180279  0.54925919     0.07100
C1095       C  0.01842319  0.38923730  0.56590696     0.09000
C1096       C  0.53918087  0.40512237  0.57966143    -0.17800
C1097       C  0.58069891  0.98187225  0.40123475    -0.16900
C1098       C  0.55823097  0.45975477  0.41153251     0.07100
C1099       C  0.53298992  0.43451586  0.42463442     0.09000
C1100       C  0.01087009  0.41204787  0.43493033    -0.17800
C1101       C  0.85019403  0.20825723  0.43699801    -0.16900
C1102       C  0.83002179  0.18628539  0.42542116     0.07100
C1103       C  0.80645882  0.16272750  0.41071210     0.09000
C1104       C  0.78448144  0.14255680  0.39913820    -0.17800
C1105       C  0.99136019  0.26581531  0.46949697    -0.16900
C1106       C  0.00974570  0.25539896  0.47457223     0.07100
C1107       C  0.03004047  0.24299571  0.48289358     0.09000
C1108       C  0.54767731  0.23361983  0.49116266    -0.17800
C1109       C  0.82772093  0.29374968  0.51164236    -0.16900
C1110       C  0.80071750  0.28438533  0.51992482     0.07100
C1111       C  0.76803405  0.27200292  0.52827155     0.09000
C1112       C  0.73924011  0.26160105  0.53336537    -0.17800
C1113       C  0.53930719  0.18248265  0.58989186    -0.16900
C1114       C  0.01853198  0.17762963  0.60362854     0.07100
C1115       C  0.99468341  0.17127392  0.62024548     0.09000
C1116       C  0.97505360  0.16541078  0.63498943    -0.17800
C1117       C  0.54754736  0.36241461  0.67839874    -0.16900
C1118       C  0.02990092  0.33539630  0.68666016     0.07100
C1119       C  0.00959263  0.30269047  0.69496749     0.09000
C1120       C  0.99119515  0.27388128  0.70002509    -0.17800
C1121       C  0.82766593  0.08230201  0.65775837    -0.16900
C1122       C  0.80064368  0.06465847  0.64950312     0.07100
C1123       C  0.76793261  0.04435651  0.64120469     0.09000
C1124       C  0.73912126  0.52596508  0.63615186    -0.17800
C1125       C  0.64767537  0.07401803  0.74629271    -0.16900
C1126       C  0.64281999  0.05324475  0.73255380     0.07100
C1127       C  0.63646522  0.52940494  0.71593022     0.09000
C1128       C  0.63060847  0.50978615  0.70117990    -0.17800
C1129       C  0.01071632  0.14720281  0.73456765    -0.16900
C1130       C  0.53283531  0.14686672  0.74486970     0.07100
C1131       C  0.55807956  0.14688076  0.75797194     0.09000
C1132       C  0.58055149  0.14724122  0.76826761    -0.17800
C1133       C  0.78427091  0.19020716  0.77027897    -0.16900
C1134       C  0.80621464  0.19196559  0.75868965     0.07100
C1135       C  0.82975975  0.19194304  0.74397184     0.09000
C1136       C  0.84993832  0.19014952  0.73239649    -0.17800
C1137       C  0.84549342  0.98199834  0.10159494    -0.16900
C1138       C  0.84582850  0.45987827  0.09129072     0.07100
C1139       C  0.84581388  0.43463306  0.07818790     0.09000
C1140       C  0.84545175  0.41215853  0.06789286    -0.17800
C1141       C  0.80250892  0.14275476  0.10377482    -0.16900
C1142       C  0.80070315  0.16292635  0.09219940     0.07100
C1143       C  0.80067434  0.18646536  0.07747937     0.09000
C1144       C  0.80243559  0.20840881  0.06588814    -0.17800
C1145       C  0.91863250  0.34499603  0.08989379    -0.16900
C1146       C  0.93940754  0.34985020  0.10363085     0.07100
C1147       C  0.96325607  0.35620756  0.12024788     0.09000
C1148       C  0.48288648  0.36207172  0.13499177    -0.17800
C1149       C  0.46674856  0.25359946  0.20002424    -0.16900
C1150       C  0.94835056  0.22479050  0.19496612     0.07100
C1151       C  0.92804165  0.19208530  0.18665823     0.09000
C1152       C  0.91039476  0.16506727  0.17839654    -0.17800
C1153       C  0.71882001  0.00151610  0.13615170    -0.16900
C1154       C  0.69000842  0.98312496  0.14120349     0.07100
C1155       C  0.65729732  0.96282331  0.14950145     0.09000
C1156       C  0.63027502  0.44517999  0.15775675    -0.17800
C1157       C  0.63464847  0.01770493  0.30166460    -0.16900
C1158       C  0.62092003  0.99812246  0.28689127     0.07100
C1159       C  0.60348250  0.97432111  0.27024100     0.09000
C1160       C  0.58759357  0.45356634  0.25648631    -0.17800
C1161       C  0.82336215  0.36193508  0.36779461    -0.16900
C1162       C  0.83711866  0.35605880  0.38253869     0.07100
C1163       C  0.85460467  0.34969549  0.39915649     0.09000
C1164       C  0.87052243  0.34484385  0.41289749    -0.17800
C1165       C  0.81027110  0.45346644  0.24629246    -0.16900
C1166       C  0.81512774  0.97423989  0.23255354     0.07100
C1167       C  0.82148205  0.99807845  0.21592980     0.09000
C1168       C  0.82733827  0.01769671  0.20117908    -0.17800
C1169       C  0.87739577  0.38024427  0.26827043    -0.16900
C1170       C  0.89986792  0.38060374  0.25797538     0.07100
C1171       C  0.92511147  0.38061593  0.24487358     0.09000
C1172       C  0.94722964  0.38027843  0.23457139    -0.17800
C1173       C  0.67367432  0.33727316  0.27027546    -0.16900
C1174       C  0.65173083  0.33551447  0.25868578     0.07100
C1175       C  0.62818579  0.33553716  0.24396799     0.09000
C1176       C  0.60800697  0.33733091  0.23239308    -0.17800
C1177       C  0.69897387  0.16501119  0.32450213    -0.16900
C1178       C  0.70833727  0.19201537  0.31621830     0.07100
C1179       C  0.72071886  0.22470051  0.30787257     0.09000
C1180       C  0.73112084  0.25349759  0.30278205    -0.17800
C1181       C  0.72691380  0.00137607  0.36667059    -0.16900
C1182       C  0.73733406  0.98299173  0.36160065     0.07100
C1183       C  0.74974294  0.96269951  0.35328367     0.09000
C1184       C  0.75912090  0.44506377  0.34501608    -0.17800
C1185       C  0.82329812  0.50977490  0.80166567    -0.16900
C1186       C  0.83702628  0.52935589  0.78689174     0.07100
C1187       C  0.85446435  0.05315603  0.77024051     0.09000
C1188       C  0.87035288  0.07391249  0.75648571    -0.17800
C1189       C  0.69881777  0.08241582  0.84501735    -0.16900
C1190       C  0.70819642  0.06478029  0.85328494     0.07100
C1191       C  0.72060670  0.04448881  0.86160125     0.09000
C1192       C  0.73102748  0.52610536  0.86667137    -0.17800
C1193       C  0.75897068  0.36247054  0.82450650    -0.16900
C1194       C  0.74960825  0.33546707  0.81622249     0.07100
C1195       C  0.73722755  0.30278217  0.80787583     0.09000
C1196       C  0.72682609  0.27398577  0.80278457    -0.17800
C1197       C  0.82716513  0.35812427  0.96837074    -0.16900
C1198       C  0.82128775  0.37187556  0.95362376     0.07100
C1199       C  0.81491650  0.38935075  0.93700176     0.09000
C1200       C  0.81005668  0.40525999  0.92325842    -0.17800
C1201       C  0.91875804  0.12235942  0.07965868    -0.16900
C1202       C  0.93951634  0.13824490  0.06590437     0.07100
C1203       C  0.96332569  0.15567982  0.04925753     0.09000
C1204       C  0.48291518  0.16940682  0.03448769    -0.17800
C1205       C  0.58742136  0.18264035  0.91289765    -0.16900
C1206       C  0.60333800  0.17778790  0.89915638     0.07100
C1207       C  0.62082261  0.17142340  0.88253820     0.09000
C1208       C  0.63457844  0.16554646  0.86779403    -0.17800
C1209       C  0.94707429  0.11543390  0.93493186    -0.16900
C1210       C  0.92495354  0.09296562  0.92463640     0.07100
C1211       C  0.89971176  0.06772735  0.91153497     0.09000
C1212       C  0.87724340  0.04560999  0.90123757    -0.17800
C1213       C  0.60774537  0.31922665  0.93699682    -0.16900
C1214       C  0.62791748  0.34119876  0.92542030     0.07100
C1215       C  0.65148140  0.36475714  0.91071173     0.09000
C1216       C  0.67345974  0.38492770  0.89913854    -0.17800
C1217       C  0.91025900  0.29385438  0.99116395    -0.16900
C1218       C  0.92789590  0.28447892  0.98289435     0.07100
C1219       C  0.94819155  0.27207742  0.97457230     0.09000
C1220       C  0.46657841  0.26166297  0.96949656    -0.17800
C1221       C  0.71870111  0.26588385  0.03336725    -0.16900
C1222       C  0.68990764  0.25548321  0.02827333     0.07100
C1223       C  0.65722475  0.24310170  0.01992613     0.09000
C1224       C  0.63022188  0.23373757  0.01164314    -0.17800
Fe1225     Fe  0.54985369  0.74957434  0.98982689     1.65800
Fe1226     Fe  0.52263010  0.71928202  0.93795461     1.73200
Fe1227     Fe  0.53710035  0.67228607  0.97520539     1.54400
O1228       O  0.58098451  0.69637016  0.99339284    -0.80100
O1229       O  0.98141161  0.67252874  0.93686714    -0.78400
O1230       O  0.59121981  0.74787868  0.00016377    -0.82600
O1231       O  0.51989068  0.71575230  0.01379746    -0.77500
O1232       O  0.56582325  0.67642180  0.94815908    -0.79200
O1233       O  0.49188884  0.73697185  0.94938847    -0.82000
C1234       C  0.50502075  0.68417175  0.01608668     0.98800
C1235       C  0.59907592  0.72541390  0.00120683     1.06200
O1236       O  0.53648623  0.71369681  0.96767259    -1.11000
O1237       O  0.56214945  0.76665509  0.93465536    -0.73400
O1238       O  0.58105646  0.78703559  0.96811225    -0.76900
O1239       O  0.50824418  0.66476017  0.00282468    -0.77600
C1240       C  0.58225429  0.78952664  0.94731680     0.97700
O1241       O  0.51064044  0.75699940  0.98287292    -0.75500
O1242       O  0.55180562  0.70239746  0.92287555    -0.80700
C1243       C  0.97529506  0.64443993  0.94408424     1.00300
C1244       C  0.56736393  0.68753441  0.92888200     1.06200
O1245       O  0.49373699  0.64081631  0.95792194    -0.76400
C1246       C  0.49089690  0.75117193  0.96698758     1.04500
Fe1247     Fe  0.74313173  0.94283939  0.84632317     1.65800
Fe1248     Fe  0.77340407  0.97004148  0.89820237     1.73200
Fe1249     Fe  0.82041051  0.95558869  0.86095204     1.54400
O1250       O  0.79633010  0.91170091  0.84276581    -0.80100
O1251       O  0.82015514  0.01126137  0.89930126    -0.78400
O1252       O  0.74483213  0.90147544  0.83598089    -0.82600
O1253       O  0.77695572  0.97281064  0.82235786    -0.77500
O1254       O  0.81627922  0.92686575  0.88799878    -0.79200
O1255       O  0.75572037  0.00078971  0.88677223    -0.82000
C1256       C  0.80853297  0.98767321  0.82006846     0.98800
C1257       C  0.76729273  0.89361476  0.83494416     1.06200
O1258       O  0.77899976  0.95619860  0.86848219    -1.11000
O1259       O  0.72603219  0.93051871  0.90149099    -0.73400
O1260       O  0.70566506  0.91162623  0.86802962    -0.76900
O1261       O  0.82793895  0.98444440  0.83333107    -0.77600
C1262       C  0.70316588  0.91041989  0.88882448     0.97700
O1263       O  0.73570537  0.98205259  0.85328315    -0.75500
O1264       O  0.79028088  0.94085834  0.91327917    -0.80700
C1265       C  0.84824308  0.51738930  0.89208098     1.00300
C1266       C  0.80515674  0.92531268  0.90727374     1.06200
O1267       O  0.85187133  0.99895669  0.87823573    -0.76400
C1268       C  0.74152585  0.00178868  0.86917303     1.04500
Fe1269     Fe  0.74323331  0.84886388  0.32314251     1.65800
Fe1270     Fe  0.77357034  0.85198273  0.27128104     1.73200
Fe1271     Fe  0.82055294  0.91339223  0.30857068     1.54400
O1272       O  0.79648916  0.93318532  0.32678324    -0.80100
O1273       O  0.82030506  0.85748090  0.27020871    -0.78400
O1274       O  0.74495586  0.89192764  0.33350448    -0.82600
O1275       O  0.77702876  0.85265675  0.34711918    -0.77500
O1276       O  0.81644182  0.93803619  0.28154905    -0.79200
O1277       O  0.75583604  0.80352336  0.28268753    -0.82000
C1278       C  0.80861037  0.86933415  0.34941136     0.98800
C1279       C  0.76743875  0.92224123  0.33457723     1.06200
O1280       O  0.77913575  0.87138841  0.30100846    -1.11000
O1281       O  0.72621922  0.84417586  0.26796244    -0.73400
O1282       O  0.70580818  0.84267755  0.30141175    -0.76900
O1283       O  0.82804046  0.89198667  0.33616381    -0.77600
C1284       C  0.70334410  0.84142195  0.28061329     0.97700
O1285       O  0.73577488  0.80221885  0.31616350    -0.75500
O1286       O  0.79050781  0.89807796  0.25623387    -0.80700
C1287       C  0.84839281  0.87945459  0.27742582     1.00300
C1288       C  0.80535929  0.92849294  0.26226290     1.06200
O1289       O  0.85201686  0.90151826  0.29126686    -0.76400
C1290       C  0.74161388  0.78831345  0.30027768     1.04500
Fe1291     Fe  0.54995659  0.84895947  0.17960164     1.65800
Fe1292     Fe  0.52284887  0.85208460  0.23149823     1.73200
Fe1293     Fe  0.53718388  0.91348258  0.19422095     1.54400
O1294       O  0.58104143  0.93329385  0.17600754    -0.80100
O1295       O  0.98161446  0.85758225  0.23262510    -0.78400
O1296       O  0.59128526  0.89202919  0.16923021    -0.82600
O1297       O  0.51992760  0.85275751  0.15565129    -0.77500
O1298       O  0.56594302  0.93813100  0.22124154    -0.79200
O1299       O  0.49210434  0.80362879  0.22010247    -0.82000
C1300       C  0.50504001  0.86944959  0.15337103     0.98800
C1301       C  0.59913132  0.92234882  0.16818721     1.06200
O1302       O  0.53662111  0.87148471  0.20176324    -1.11000
O1303       O  0.56240044  0.84427989  0.23476472    -0.73400
O1304       O  0.58122668  0.84275603  0.20129200    -0.76900
O1305       O  0.50828442  0.89210021  0.16662591    -0.77600
C1306       C  0.58248241  0.84150602  0.22208774     0.97700
O1307       O  0.51077135  0.80231737  0.18659683    -0.75500
O1308       O  0.55203055  0.89817248  0.24653876    -0.80700
C1309       C  0.97544938  0.87951626  0.22539985     1.00300
C1310       C  0.56753967  0.92858945  0.24051684     1.06200
O1311       O  0.49384101  0.90156387  0.21153421    -0.76400
C1312       C  0.49107086  0.78841642  0.20250476     1.04500
Fe1313     Fe  0.81418159  0.58473110  0.15656294     1.65800
Fe1314     Fe  0.81729264  0.55761270  0.10466634     1.73200
Fe1315     Fe  0.87870312  0.57196919  0.14193286     1.54400
O1316       O  0.89851119  0.61583138  0.16014368    -0.80100
O1317       O  0.82278950  0.51637537  0.10354436    -0.78400
O1318       O  0.85724853  0.62607402  0.16692250    -0.82600
O1319       O  0.81800397  0.55471964  0.18051503    -0.77500
O1320       O  0.90333668  0.60072716  0.11490826    -0.79200
O1321       O  0.76884309  0.52687086  0.11606909    -0.82000
C1322       C  0.83469918  0.53983586  0.18279303     0.98800
C1323       C  0.88756632  0.63392192  0.16796401     1.06200
O1324       O  0.83670136  0.57139572  0.13439781    -1.11000
O1325       O  0.80948651  0.59716439  0.10139932    -0.73400
O1326       O  0.80795288  0.61598473  0.13487291    -0.76900
O1327       O  0.85733842  0.54307336  0.16953196    -0.77600
C1328       C  0.80670133  0.61723948  0.11407745     0.97700
O1329       O  0.76754363  0.54553146  0.14957953    -0.75500
O1330       O  0.86337175  0.58679151  0.08961579    -0.80700
C1331       C  0.84473123  0.51021960  0.11076371     1.00300
C1332       C  0.89378861  0.60231074  0.09563290     1.06200
O1333       O  0.86678578  0.52862200  0.12462168    -0.76400
C1334       C  0.75363769  0.52583403  0.13367018     1.04500
Fe1335     Fe  0.81406199  0.77798222  0.01302380     1.65800
Fe1336     Fe  0.81716617  0.80831789  0.06488507     1.73200
Fe1337     Fe  0.87859255  0.85529832  0.02760568     1.54400
O1338       O  0.89838563  0.83122555  0.00940252    -0.80100
O1339       O  0.82268221  0.85506285  0.06595915    -0.78400
O1340       O  0.85712220  0.77969956  0.00266410    -0.82600
O1341       O  0.81786517  0.81178486  0.98904938    -0.77500
O1342       O  0.90321745  0.85118079  0.05463594    -0.79200
O1343       O  0.76871763  0.79060095  0.05346863    -0.82000
C1344       C  0.83455391  0.84336799  0.98675652     0.98800
C1345       C  0.88743763  0.80217639  0.00160122     1.06200
O1346       O  0.83658257  0.81388316  0.03516121    -1.11000
O1347       O  0.80933890  0.76095624  0.06820134    -0.73400
O1348       O  0.80786645  0.74055198  0.03475287    -0.76900
O1349       O  0.85720758  0.86279376  0.00000447    -0.77600
C1350       C  0.80659292  0.73808242  0.05555067     0.97700
O1351       O  0.76741910  0.77052574  0.01999788    -0.75500
O1352       O  0.86324954  0.82523744  0.07994236    -0.80700
C1353       C  0.84465750  0.88315048  0.05874079     1.00300
C1354       C  0.89366550  0.84009044  0.07391987     1.06200
O1355       O  0.86671880  0.88677010  0.04490088    -0.76400
C1356       C  0.75351231  0.77637347  0.03587841     1.04500
Fe1357     Fe  0.71470767  0.67861589  0.82314451     1.65800
Fe1358     Fe  0.68437520  0.67550004  0.77128209     1.73200
Fe1359     Fe  0.63738874  0.61408907  0.80857022     1.54400
O1360       O  0.66144997  0.59429446  0.82678397    -0.80100
O1361       O  0.63764105  0.67000325  0.77020833    -0.78400
O1362       O  0.71298292  0.63555130  0.83350684    -0.82600
O1363       O  0.68091042  0.67482310  0.84711974    -0.77500
O1364       O  0.64150201  0.58944591  0.78154895    -0.79200
O1365       O  0.70211008  0.72395943  0.78268900    -0.82000
C1366       C  0.64932855  0.65814612  0.84941088     0.98800
C1367       C  0.69049968  0.60523792  0.83457899     1.06200
O1368       O  0.67880697  0.65609287  0.80100933    -1.11000
O1369       O  0.73172607  0.68330541  0.76796510    -0.73400
O1370       O  0.75213413  0.68480163  0.80141511    -0.76900
O1371       O  0.62989927  0.63549409  0.83616291    -0.77600
C1372       C  0.75459977  0.68605785  0.78061668     0.97700
O1373       O  0.72216838  0.72526185  0.81616555    -0.75500
O1374       O  0.66743767  0.62940516  0.75623442    -0.80700
C1375       C  0.60955245  0.64802883  0.77742417     1.00300
C1376       C  0.65258578  0.59898994  0.76226311     1.06200
O1377       O  0.60592699  0.62596425  0.79126489    -0.76400
C1378       C  0.71633118  0.73916835  0.80027951     1.04500
Fe1379     Fe  0.90798499  0.67852159  0.67960309     1.65800
Fe1380     Fe  0.93509488  0.67539418  0.73149859     1.73200
Fe1381     Fe  0.92075872  0.61399804  0.69421976     1.54400
O1382       O  0.87690001  0.59418736  0.67600758    -0.80100
O1383       O  0.97632894  0.66989612  0.73262404    -0.78400
O1384       O  0.86665555  0.63545215  0.66923210    -0.82600
O1385       O  0.93801246  0.67472429  0.65565118    -0.77500
O1386       O  0.89200124  0.58934833  0.72124084    -0.79200
O1387       O  0.96583938  0.72385024  0.72010311    -0.82000
C1388       C  0.95290000  0.65803234  0.65336974     0.98800
C1389       C  0.85880960  0.60513271  0.66818839     1.06200
O1390       O  0.92132152  0.65599542  0.70176345    -1.11000
O1391       O  0.89554389  0.68319940  0.73476682    -0.73400
O1392       O  0.87671618  0.68472456  0.70129489    -0.76900
O1393       O  0.94965649  0.63538144  0.66662420    -0.77600
C1394       C  0.87546147  0.68597390  0.72209077     0.97700
O1395       O  0.94717093  0.72516321  0.68659819    -0.75500
O1396       O  0.90591341  0.62930577  0.74653863    -0.80700
C1397       C  0.98249446  0.64796314  0.72539742     1.00300
C1398       C  0.89040466  0.59888883  0.74051630     1.06200
O1399       O  0.96410285  0.62591650  0.71153145    -0.76400
C1400       C  0.96687233  0.73906339  0.70250584     1.04500
Fe1401     Fe  0.90808725  0.77791141  0.48982827     1.65800
Fe1402     Fe  0.93531067  0.80820163  0.43795537     1.73200
Fe1403     Fe  0.92084362  0.85520058  0.47520566     1.54400
O1404       O  0.87695856  0.83111795  0.49339277    -0.80100
O1405       O  0.97652961  0.85495471  0.43686631    -0.78400
O1406       O  0.86672214  0.77960935  0.50016514    -0.82600
O1407       O  0.93805130  0.81173345  0.51379852    -0.77500
O1408       O  0.89212168  0.85106597  0.44815901    -0.79200
O1409       O  0.96605149  0.79051124  0.44938960    -0.82000
C1410       C  0.95292141  0.84331391  0.51608784     0.98800
C1411       C  0.85886657  0.80207459  0.50120728     1.06200
O1412       O  0.92145584  0.81378867  0.46767341    -1.11000
O1413       O  0.89579068  0.76082871  0.43465715    -0.73400
O1414       O  0.87688289  0.74044998  0.46811430    -0.76900
O1415       O  0.94969875  0.86272585  0.50282549    -0.77600
C1416       C  0.87568505  0.73795801  0.44731878     0.97700
O1417       O  0.94729922  0.77048407  0.48287418    -0.75500
O1418       O  0.90613502  0.82508602  0.42287622    -0.80700
C1419       C  0.98264813  0.88304393  0.44408357     1.00300
C1420       C  0.89057874  0.83995110  0.42888249     1.06200
O1421       O  0.96420788  0.88666872  0.45792220    -0.76400
C1422       C  0.96704266  0.77631064  0.46698874     1.04500
Fe1423     Fe  0.71481314  0.58464370  0.34632272     1.65800
Fe1424     Fe  0.68453778  0.55744170  0.39820133     1.73200
Fe1425     Fe  0.63753306  0.57189364  0.36094912     1.54400
O1426       O  0.66161381  0.61578045  0.34276187    -0.80100
O1427       O  0.63778697  0.51622163  0.39929954    -0.78400
O1428       O  0.71311280  0.62600711  0.33597931    -0.82600
O1429       O  0.68099042  0.55467168  0.32235713    -0.77500
O1430       O  0.64166313  0.60061772  0.38799495    -0.79200
O1431       O  0.70222203  0.52669314  0.38677236    -0.82000
C1432       C  0.64941316  0.53980800  0.32006739     0.98800
C1433       C  0.69065178  0.63386702  0.33494107     1.06200
O1434       O  0.67894372  0.57128438  0.36848072    -1.11000
O1435       O  0.73190936  0.59696477  0.40149076    -0.73400
O1436       O  0.75227848  0.61585763  0.36802974    -0.76900
O1437       O  0.63000626  0.54303670  0.33332924    -0.77600
C1438       C  0.75477633  0.61706410  0.38882480     0.97700
O1439       O  0.72223941  0.54543077  0.35328373    -0.75500
O1440       O  0.66765976  0.58662497  0.41327664    -0.80700
C1441       C  0.60969892  0.51009429  0.39207857     1.00300
C1442       C  0.65278443  0.60217081  0.40727029     1.06200
O1443       O  0.60607143  0.52852628  0.37823334    -0.76400
C1444       C  0.71641735  0.52569400  0.36917358     1.04500
Fe1445     Fe  0.64375993  0.94274919  0.65656411     1.65800
Fe1446     Fe  0.64064708  0.96986916  0.60466835     1.73200
Fe1447     Fe  0.57923844  0.95551259  0.64193640     1.54400
O1448       O  0.55943115  0.91165081  0.66014785    -0.80100
O1449       O  0.63515169  0.01110731  0.60354787    -0.78400
O1450       O  0.60069324  0.90140625  0.66692391    -0.82600
O1451       O  0.63993888  0.97276047  0.68051695    -0.77500
O1452       O  0.55460300  0.92675412  0.61491244    -0.79200
O1453       O  0.68909755  0.00061007  0.61607028    -0.82000
C1454       C  0.62324504  0.98764575  0.68279531     0.98800
C1455       C  0.57037588  0.89355930  0.66796689     1.06200
O1456       O  0.62123953  0.95608551  0.63440005    -1.11000
O1457       O  0.64845152  0.93031662  0.60139990    -0.73400
O1458       O  0.64998727  0.91149570  0.63487297    -0.76900
O1459       O  0.60060558  0.98440903  0.66953470    -0.77600
C1460       C  0.65123703  0.91024099  0.61407742     0.97700
O1461       O  0.69039778  0.98194889  0.64958045    -0.75500
O1462       O  0.59456679  0.94069161  0.58961873    -0.80700
C1463       C  0.61320926  0.51726218  0.61076710     1.00300
C1464       C  0.56415007  0.92517161  0.59563656     1.06200
O1465       O  0.59115480  0.99885952  0.62462489    -0.76400
C1466       C  0.70430342  0.00164677  0.63367119     1.04500
Fe1467     Fe  0.64387578  0.74949787  0.51302201     1.65800
Fe1468     Fe  0.64077308  0.71916413  0.56488385     1.73200
Fe1469     Fe  0.57934779  0.67218028  0.52760455     1.54400
O1470       O  0.55955206  0.69625120  0.50940172    -0.80100
O1471       O  0.63525807  0.67241957  0.56595966    -0.78400
O1472       O  0.60081422  0.74777737  0.50266183    -0.82600
O1473       O  0.64007505  0.71569572  0.48904804    -0.77500
O1474       O  0.55472199  0.67629586  0.55463503    -0.79200
O1475       O  0.68922202  0.73688192  0.55346729    -0.82000
C1476       C  0.62338674  0.68411258  0.48675495     0.98800
C1477       C  0.57049898  0.72529995  0.50159981     1.06200
O1478       O  0.62135657  0.71359695  0.53515982    -1.11000
O1479       O  0.64859911  0.76652551  0.56819905    -0.73400
O1480       O  0.65006853  0.78692787  0.53475036    -0.76900
O1481       O  0.60073323  0.66468630  0.50000289    -0.77600
C1482       C  0.65134288  0.78939815  0.55554820     0.97700
O1483       O  0.69051989  0.75695756  0.51999665    -0.75500
O1484       O  0.59468946  0.70224435  0.57994088    -0.80700
C1485       C  0.61328496  0.64433146  0.55874080     1.00300
C1486       C  0.56427340  0.68738864  0.57391846     1.06200
O1487       O  0.59122448  0.64071045  0.54489968    -0.76400
C1488       C  0.70442727  0.75111038  0.53587717     1.04500
C1489       C  0.61244866  0.54548442  0.60159703    -0.16900
C1490       C  0.61211343  0.56760453  0.59129431     0.07100
C1491       C  0.61212954  0.59284982  0.57819082     0.09000
C1492       C  0.61249233  0.61532421  0.56789481    -0.17800
C1493       C  0.65549983  0.81907114  0.56588589    -0.16900
C1494       C  0.65726060  0.84101432  0.57747738     0.07100
C1495       C  0.65723242  0.86455299  0.59219791     0.09000
C1496       C  0.65542798  0.88472478  0.60377406    -0.17800
C1497       C  0.64788433  0.62222406  0.42325452    -0.16900
C1498       C  0.64302449  0.63813258  0.43699836     0.07100
C1499       C  0.63665354  0.65560650  0.45362149     0.09000
C1500       C  0.63077654  0.66935670  0.46836933    -0.17800
C1501       C  0.97502690  0.85807717  0.53448914    -0.16900
C1502       C  0.99461498  0.87180360  0.54925963     0.07100
C1503       C  0.01842315  0.88923800  0.56590732     0.09000
C1504       C  0.53918097  0.90512310  0.57966189    -0.17800
C1505       C  0.58069876  0.48187255  0.40123514    -0.16900
C1506       C  0.55823092  0.95975443  0.41153226     0.07100
C1507       C  0.53298997  0.93451591  0.42463418     0.09000
C1508       C  0.01086991  0.91204783  0.43493030    -0.17800
C1509       C  0.85019385  0.70825726  0.43699891    -0.16900
C1510       C  0.83002145  0.68628517  0.42542199     0.07100
C1511       C  0.80645873  0.66272742  0.41071302     0.09000
C1512       C  0.78448122  0.64255655  0.39913896    -0.17800
C1513       C  0.99136030  0.76581589  0.46949764    -0.16900
C1514       C  0.00974588  0.75539970  0.47457293     0.07100
C1515       C  0.03004081  0.74299653  0.48289428     0.09000
C1516       C  0.54767767  0.73362066  0.49116327    -0.17800
C1517       C  0.82772106  0.79375051  0.51164301    -0.16900
C1518       C  0.80071777  0.78438618  0.51992556     0.07100
C1519       C  0.76803425  0.77200363  0.52827243     0.09000
C1520       C  0.73924041  0.76160168  0.53336627    -0.17800
C1521       C  0.53930717  0.68248352  0.58989250    -0.16900
C1522       C  0.01853177  0.67763039  0.60362907     0.07100
C1523       C  0.99468301  0.67127449  0.62024584     0.09000
C1524       C  0.97505299  0.66541120  0.63498976    -0.17800
C1525       C  0.54754695  0.86241506  0.67839899    -0.16900
C1526       C  0.02990035  0.83539674  0.68666030     0.07100
C1527       C  0.00959179  0.80269092  0.69496750     0.09000
C1528       C  0.99119403  0.77388158  0.70002506    -0.17800
C1529       C  0.82766545  0.58230221  0.65775821    -0.16900
C1530       C  0.80064329  0.56465862  0.64950278     0.07100
C1531       C  0.76793245  0.54435666  0.64120422     0.09000
C1532       C  0.73912149  0.02596513  0.63615243    -0.17800
C1533       C  0.64767428  0.57401698  0.74629271    -0.16900
C1534       C  0.64281922  0.55324382  0.73255372     0.07100
C1535       C  0.63646556  0.02940565  0.71593036     0.09000
C1536       C  0.63060852  0.00978677  0.70118012    -0.17800
C1537       C  0.01071516  0.64720320  0.73456819    -0.16900
C1538       C  0.53283392  0.64686670  0.74487014     0.07100
C1539       C  0.55807802  0.64688012  0.75797226     0.09000
C1540       C  0.58054981  0.64724012  0.76826779    -0.17800
C1541       C  0.78426931  0.69020596  0.77027931    -0.16900
C1542       C  0.80621305  0.69196465  0.75868984     0.07100
C1543       C  0.82975811  0.69194252  0.74397187     0.09000
C1544       C  0.84993685  0.69014935  0.73239636    -0.17800
C1545       C  0.84549219  0.48199778  0.10159319    -0.16900
C1546       C  0.84582942  0.95987852  0.09129237     0.07100
C1547       C  0.84581406  0.93463335  0.07818941     0.09000
C1548       C  0.84545126  0.91215857  0.06789403    -0.17800
C1549       C  0.80250855  0.64275506  0.10377513    -0.16900
C1550       C  0.80070261  0.66292686  0.09219975     0.07100
C1551       C  0.80067354  0.68646563  0.07747994     0.09000
C1552       C  0.80243457  0.70840926  0.06588865    -0.17800
C1553       C  0.91863116  0.84499576  0.08989439    -0.16900
C1554       C  0.93940628  0.84984980  0.10363129     0.07100
C1555       C  0.96325522  0.85620701  0.12024818     0.09000
C1556       C  0.48288577  0.86207097  0.13499173    -0.17800
C1557       C  0.46674929  0.75359809  0.20002381    -0.16900
C1558       C  0.94835149  0.72478910  0.19496573     0.07100
C1559       C  0.92804246  0.69208383  0.18665782     0.09000
C1560       C  0.91039546  0.66506601  0.17839613    -0.17800
C1561       C  0.71881959  0.50151623  0.13615137    -0.16900
C1562       C  0.69000825  0.48312529  0.14120321     0.07100
C1563       C  0.65729708  0.46282361  0.14950134     0.09000
C1564       C  0.63027496  0.94517950  0.15775677    -0.17800
C1565       C  0.63464823  0.51770577  0.30166491    -0.16900
C1566       C  0.62091999  0.49812374  0.28689149     0.07100
C1567       C  0.60348256  0.47432260  0.27024096     0.09000
C1568       C  0.58759336  0.95356471  0.25648640    -0.17800
C1569       C  0.82336176  0.86193458  0.36779489    -0.16900
C1570       C  0.83711808  0.85605837  0.38253901     0.07100
C1571       C  0.85460417  0.84969514  0.39915701     0.09000
C1572       C  0.87052181  0.84484370  0.41289791    -0.17800
C1573       C  0.81027187  0.95346640  0.24629269    -0.16900
C1574       C  0.81512695  0.47423945  0.23255321     0.07100
C1575       C  0.82148136  0.49807777  0.21592902     0.09000
C1576       C  0.82733757  0.51769557  0.20117828    -0.17800
C1577       C  0.87739624  0.88024355  0.26827070    -0.16900
C1578       C  0.89986812  0.88060261  0.25797572     0.07100
C1579       C  0.92511152  0.88061434  0.24487388     0.09000
C1580       C  0.94722950  0.88027662  0.23457165    -0.17800
C1581       C  0.67367495  0.83727303  0.27027498    -0.16900
C1582       C  0.65173147  0.83551422  0.25868511     0.07100
C1583       C  0.62818655  0.83553677  0.24396724     0.09000
C1584       C  0.60800760  0.83733036  0.23239229    -0.17800
C1585       C  0.69897442  0.66501158  0.32450276    -0.16900
C1586       C  0.70833780  0.69201556  0.31621880     0.07100
C1587       C  0.72071934  0.72470061  0.30787284     0.09000
C1588       C  0.73112119  0.75349754  0.30278218    -0.17800
C1589       C  0.72691333  0.50137590  0.36667114    -0.16900
C1590       C  0.73733353  0.48299156  0.36160114     0.07100
C1591       C  0.74974240  0.46269935  0.35328404     0.09000
C1592       C  0.75912140  0.94506383  0.34501581    -0.17800
C1593       C  0.82329886  0.00977422  0.80166540    -0.16900
C1594       C  0.83702726  0.02935535  0.78689146     0.07100
C1595       C  0.85446328  0.55315655  0.77024067     0.09000
C1596       C  0.87035172  0.57391292  0.75648587    -0.17800
C1597       C  0.69881585  0.58241470  0.84501788    -0.16900
C1598       C  0.70819480  0.56477937  0.85328563     0.07100
C1599       C  0.72060542  0.54448835  0.86160202     0.09000
C1600       C  0.73102840  0.02610563  0.86667055    -0.17800
C1601       C  0.75897027  0.86246972  0.82450634    -0.16900
C1602       C  0.74960750  0.83546608  0.81622236     0.07100
C1603       C  0.73722646  0.80278117  0.80787575     0.09000
C1604       C  0.72682470  0.77398466  0.80278450    -0.17800
C1605       C  0.82716418  0.85812464  0.96837143    -0.16900
C1606       C  0.82128686  0.87187573  0.95362426     0.07100
C1607       C  0.81491572  0.88935057  0.93700201     0.09000
C1608       C  0.81005605  0.90525960  0.92325843    -0.17800
C1609       C  0.91875711  0.62235983  0.07965804    -0.16900
C1610       C  0.93951527  0.63824565  0.06590385     0.07100
C1611       C  0.96332468  0.65568100  0.04925706     0.09000
C1612       C  0.48291412  0.66940813  0.03448737    -0.17800
C1613       C  0.58741980  0.68264113  0.91289719    -0.16900
C1614       C  0.60333620  0.67778830  0.89915585     0.07100
C1615       C  0.62082057  0.67142328  0.88253775     0.09000
C1616       C  0.63457631  0.66554592  0.86779377    -0.17800
C1617       C  0.94707326  0.61543534  0.93493182    -0.16900
C1618       C  0.92495274  0.59296706  0.92463643     0.07100
C1619       C  0.89971106  0.56772850  0.91153498     0.09000
C1620       C  0.87724296  0.54561099  0.90123770    -0.17800
C1621       C  0.60774484  0.81922755  0.93699650    -0.16900
C1622       C  0.62791727  0.84119960  0.92541985     0.07100
C1623       C  0.65148120  0.86475752  0.91071132     0.09000
C1624       C  0.67345982  0.88492803  0.89913801    -0.17800
C1625       C  0.91025777  0.79385490  0.99116423    -0.16900
C1626       C  0.92789481  0.78447980  0.98289452     0.07100
C1627       C  0.94819076  0.77207871  0.97457233     0.09000
C1628       C  0.46657775  0.76166455  0.96949654    -0.17800
C1629       C  0.71869989  0.76588413  0.03336752    -0.16900
C1630       C  0.68990642  0.75548365  0.02827345     0.07100
C1631       C  0.65722374  0.74310247  0.01992615     0.09000
C1632       C  0.63022083  0.73373852  0.01164305    -0.17800
loop_ 
_geom_bond_atom_site_label_1 
_geom_bond_atom_site_label_2 
_geom_bond_distance 
_geom_bond_site_symmetry_2 
_ccdc_geom_bond_type 
Fe1          O17   2.051       .  S
Fe1           O7   2.081   1_556  S
Fe1          O14   2.081       .  S
Fe1           O6   2.052   1_556  S
Fe1          O12   1.982       .  S
Fe2           O9   2.082   1_455  S
Fe2          O13   2.043       .  S
Fe2          O18   2.080       .  S
Fe2         O821   2.047   1_455  S
Fe2          O12   1.980       .  S
Fe3          O21   2.080   1_455  S
Fe3           O8   2.064       .  S
Fe3          O15   2.066   1_556  S
Fe3           O4   2.080       .  S
Fe3          O12   1.983       .  S
O4           C11   1.267   1_556  A
O5         Fe818   2.047       .  S
O5           C19   1.262       .  A
O6           C11   1.262       .  A
O7           C10   1.273       .  A
O8           C20   1.269       .  A
O9           C22   1.270       .  A
C10          O15   1.270       .  A
C10         C388   1.438   1_455  S
C11         C408   1.439       .  S
O13          C16   1.263       .  A
O14          C16   1.271       .  A
C16         C397   1.432       .  S
O17          C22   1.263   1_455  A
O18          C20   1.272       .  A
C19         O837   1.268       .  A
C19         C393   1.436       .  S
C20         C389   1.438       .  S
O21         C835   1.268       .  A
C22         C404   1.438       .  S
Fe23         O39   2.051       .  S
Fe23         O29   2.081       .  S
Fe23         O36   2.081       .  S
Fe23         O28   2.052       .  S
Fe23         O34   1.982       .  S
Fe24         O27   2.047       .  S
Fe24         O31   2.082       .  S
Fe24         O35   2.043       .  S
Fe24         O40   2.080       .  S
Fe24         O34   1.980       .  S
Fe25         O43   2.080       .  S
Fe25         O30   2.064       .  S
Fe25         O37   2.066       .  S
Fe25         O26   2.079       .  S
Fe25         O34   1.983       .  S
O26          C33   1.267       .  A
O27         C449   1.262       .  A
O28          C33   1.262       .  A
O29          C32   1.273       .  A
O30          C42   1.269       .  A
O31          C44   1.270       .  A
C32          O37   1.270       .  A
C32         C369   1.438       .  S
C33         C377   1.439       .  S
O35          C38   1.263       .  A
O36          C38   1.271       .  A
C38         C400   1.432       .  S
O39          C44   1.263       .  A
O40          C42   1.272       .  A
C41         O435   1.262       .  A
C41         O451   1.268   1_545  A
C41         C396   1.436       .  S
C42         C384   1.438       .  S
O43         C449   1.268       .  A
C44         C376   1.438       .  S
Fe45         O61   2.051       .  S
Fe45         O51   2.081       .  S
Fe45         O58   2.082       .  S
Fe45         O50   2.052       .  S
Fe45         O56   1.982       .  S
Fe46         O49   2.047       .  S
Fe46         O53   2.083       .  S
Fe46         O57   2.043       .  S
Fe46         O62   2.080       .  S
Fe46         O56   1.980       .  S
Fe47         O65   2.080       .  S
Fe47         O52   2.064       .  S
Fe47         O59   2.066       .  S
Fe47         O48   2.080       .  S
Fe47         O56   1.983       .  S
O48          C55   1.267       .  A
O49          C63   1.262       .  A
O50          C55   1.262       .  A
O51          C54   1.273       .  A
O52          C64   1.269       .  A
O53          C66   1.270       .  A
C54          O59   1.270       .  A
C54         C345   1.439       .  S
C55         C368   1.439       .  S
O57          C60   1.263       .  A
O58          C60   1.271       .  A
C60         C357   1.432       .  S
O61          C66   1.263       .  A
O62          C64   1.272       .  A
C63          O65   1.268       .  A
C63         C353   1.436       .  S
C64         C349   1.438       .  S
C66         C364   1.438       .  S
Fe67         O83   2.051       .  S
Fe67         O73   2.081       .  S
Fe67         O80   2.082       .  S
Fe67         O72   2.052       .  S
Fe67         O78   1.982       .  S
Fe68         O75   2.082   1_455  S
Fe68         O79   2.043       .  S
Fe68         O84   2.080       .  S
Fe68        O887   2.047   1_455  S
Fe68         O78   1.980       .  S
Fe69         O87   2.080   1_455  S
Fe69         O74   2.064       .  S
Fe69         O81   2.066       .  S
Fe69         O70   2.079       .  S
Fe69         O78   1.983       .  S
O70          C77   1.267       .  A
O71        Fe884   2.047       .  S
O71          C85   1.262       .  A
O72          C77   1.262       .  A
O73          C76   1.273       .  A
O74          C86   1.269       .  A
O75          C88   1.270       .  A
C76          O81   1.270       .  A
C76         C332   1.439   1_455  S
C77         C340   1.439       .  S
O79          C82   1.263       .  A
O80          C82   1.271       .  A
C82         C360   1.432       .  S
O83          C88   1.263   1_455  A
O84          C86   1.272       .  A
C85         O903   1.268       .  A
C85         C356   1.436       .  S
C86         C344   1.438       .  S
O87         C901   1.268       .  A
C88         C333   1.438       .  S
Fe89        O105   2.051       .  S
Fe89         O95   2.081       .  S
Fe89        O102   2.081       .  S
Fe89         O94   2.052       .  S
Fe89        O100   1.982       .  S
Fe90         O93   2.047       .  S
Fe90         O97   2.082       .  S
Fe90        O101   2.043       .  S
Fe90        O106   2.080       .  S
Fe90        O100   1.980       .  S
Fe91        O109   2.080       .  S
Fe91         O96   2.064       .  S
Fe91        O103   2.066       .  S
Fe91         O92   2.079       .  S
Fe91        O100   1.983       .  S
O92          C99   1.267       .  A
O93         C107   1.262       .  A
O94          C99   1.262       .  A
O95          C98   1.273       .  A
O96         C108   1.269       .  A
O97         C110   1.270       .  A
C98         O103   1.270       .  A
C98         C352   1.439       .  S
C99         C336   1.439       .  S
O101        C104   1.263       .  A
O102        C104   1.271       .  A
C104        C325   1.432       .  S
O105        C110   1.263       .  A
O106        C108   1.272       .  A
C107        O109   1.268       .  A
C107        C321   1.436   1_545  S
C108        C385   1.438       .  S
C110        C337   1.438       .  S
Fe111       O127   2.051       .  S
Fe111       O117   2.081   1_554  S
Fe111       O124   2.082       .  S
Fe111       O116   2.052       .  S
Fe111       O122   1.982       .  S
Fe112       O115   2.047       .  S
Fe112       O119   2.083       .  S
Fe112       O123   2.043       .  S
Fe112       O128   2.080       .  S
Fe112       O122   1.980       .  S
Fe113       O131   2.080       .  S
Fe113       O118   2.064       .  S
Fe113       O125   2.066       .  S
Fe113       O114   2.079       .  S
Fe113       O122   1.983       .  S
O114        C121   1.267       .  A
O115        C129   1.262       .  A
O116        C121   1.262       .  A
O117        C120   1.273       .  A
O118        C130   1.269       .  A
O119        C132   1.270       .  A
C120        O125   1.270   1_556  A
C120        C381   1.439       .  S
C121        C401   1.439   1_554  S
O123        C126   1.263       .  A
O124        C126   1.271       .  A
C126        C328   1.432       .  S
O127        C132   1.263       .  A
O128        C130   1.272       .  A
C129        O131   1.268       .  A
C129        C324   1.436       .  S
C130        C329   1.438       .  S
C132        C405   1.438       .  S
Fe133       O149   2.051       .  S
Fe133       O139   2.081       .  S
Fe133       O146   2.082       .  S
Fe133       O138   2.052       .  S
Fe133       O144   1.982       .  S
Fe134       O137   2.047       .  S
Fe134       O141   2.083       .  S
Fe134       O145   2.043       .  S
Fe134       O150   2.080       .  S
Fe134       O144   1.980       .  S
Fe135       O153   2.080       .  S
Fe135       O140   2.064       .  S
Fe135       O147   2.066       .  S
Fe135       O136   2.079       .  S
Fe135       O144   1.983       .  S
O136        C143   1.267       .  A
O137        C151   1.262       .  A
O138        C143   1.262       .  A
O139        C142   1.273       .  A
O140        C152   1.269       .  A
O141        C154   1.270       .  A
C142        O147   1.270       .  A
C142        C392   1.439       .  S
C143        C373   1.439       .  S
O145        C148   1.263       .  A
O146        C148   1.271       .  A
C148        C317   1.432       .  S
O149        C154   1.263       .  A
O150        C152   1.272       .  A
C151        O153   1.268       .  A
C151        C316   1.436       .  S
C152        C309   1.438       .  S
C154        C380   1.438       .  S
Fe155       O171   2.051       .  S
Fe155       O161   2.081       .  S
Fe155       O168   2.082       .  S
Fe155       O160   2.052       .  S
Fe155       O166   1.982       .  S
Fe156       O159   2.047       .  S
Fe156       O163   2.082       .  S
Fe156       O167   2.043       .  S
Fe156       O172   2.080       .  S
Fe156       O166   1.980       .  S
Fe157       O175   2.080       .  S
Fe157       O162   2.064       .  S
Fe157       O169   2.066       .  S
Fe157       O158   2.079       .  S
Fe157       O166   1.983       .  S
O158        C165   1.267       .  A
O159        C173   1.262       .  A
O160        C165   1.262       .  A
O161        C164   1.273       .  A
O162        C174   1.269       .  A
O163        C176   1.270       .  A
C164        O169   1.270       .  A
C164        C300   1.439       .  S
C165        C305   1.439       .  S
O167        C170   1.263       .  A
O168        C170   1.271       .  A
C170        C320   1.432       .  S
O171        C176   1.263       .  A
O172        C174   1.272       .  A
C173        O175   1.268       .  A
C173        C313   1.436       .  S
C174        C372   1.438       .  S
C176        C304   1.438       .  S
Fe177       O193   2.051       .  S
Fe177       O183   2.081       .  S
Fe177       O190   2.081       .  S
Fe177       O182   2.052       .  S
Fe177       O188   1.982       .  S
Fe178       O181   2.047       .  S
Fe178       O185   2.082       .  S
Fe178       O189   2.043       .  S
Fe178       O194   2.080       .  S
Fe178       O188   1.980       .  S
Fe179       O197   2.080       .  S
Fe179       O184   2.064       .  S
Fe179       O191   2.066       .  S
Fe179       O180   2.080       .  S
Fe179       O188   1.983       .  S
O180        C187   1.267       .  A
O181        C195   1.262       .  A
O182        C187   1.262       .  A
O183        C186   1.273       .  A
O184        C196   1.269       .  A
O185        C198   1.270       .  A
C186        O191   1.270       .  A
C186        C277   1.438       .  S
C187        C293   1.439       .  S
O189        C192   1.263       .  A
O190        C192   1.271       .  A
C192        C285   1.432       .  S
O193        C198   1.263       .  A
O194        C196   1.272       .  A
C195        O197   1.268       .  A
C195        C284   1.436       .  S
C196        C348   1.438       .  S
C198        C289   1.438       .  S
Fe199       O215   2.051       .  S
Fe199       O205   2.081       .  S
Fe199       O212   2.081       .  S
Fe199       O204   2.052       .  S
Fe199       O210   1.982       .  S
Fe200       O203   2.047       .  S
Fe200       O207   2.082       .  S
Fe200       O211   2.043       .  S
Fe200       O216   2.080       .  S
Fe200       O210   1.980       .  S
Fe201       O219   2.080       .  S
Fe201       O206   2.064       .  S
Fe201       O213   2.066       .  S
Fe201       O202   2.079       .  S
Fe201       O210   1.983       .  S
O202        C209   1.267       .  A
O203        C217   1.262       .  A
O204        C209   1.262       .  A
O205        C208   1.273       .  A
O206        C218   1.269       .  A
O207        C220   1.270       .  A
C208        O213   1.270       .  A
C208        C341   1.438       .  S
C209        C361   1.439       .  S
O211        C214   1.263       .  A
O212        C214   1.271       .  A
C214        C288   1.432       .  S
O215        C220   1.263       .  A
O216        C218   1.272       .  A
C217        O219   1.268       .  A
C217        C281   1.436   1_545  S
C218        C273   1.438       .  S
C220        C365   1.438       .  S
Fe221       O237   2.051       .  S
Fe221       O227   2.081       .  S
Fe221       O234   2.082       .  S
Fe221       O226   2.052       .  S
Fe221       O232   1.982       .  S
Fe222       O225   2.047       .  S
Fe222       O229   2.082       .  S
Fe222       O233   2.043       .  S
Fe222       O238   2.080       .  S
Fe222       O232   1.980       .  S
Fe223       O241   2.080       .  S
Fe223       O228   2.064       .  S
Fe223       O235   2.066       .  S
Fe223       O224   2.079       .  S
Fe223       O232   1.983       .  S
O224        C231   1.267       .  A
O225        C647   1.262       .  A
O226        C231   1.262       .  A
O227        C230   1.273       .  A
O228        C240   1.269       .  A
O229        C242   1.270       .  A
C230        O235   1.270       .  A
C230        C312   1.439       .  S
C231        C301   1.439       .  S
O233        C236   1.263       .  A
O234        C236   1.271       .  A
C236        C272   1.432       .  S
O237        C242   1.263       .  A
O238        C240   1.272       .  A
C239        O633   1.262       .  A
C239        O649   1.268   1_545  A
C239        C265   1.436       .  S
C240        C280   1.438       .  S
O241        C647   1.268       .  A
C242        C308   1.438       .  S
Fe243       O259   2.051       .  S
Fe243       O249   2.081       .  S
Fe243       O256   2.082       .  S
Fe243       O248   2.052       .  S
Fe243       O254   1.982       .  S
Fe244       O247   2.047       .  S
Fe244       O251   2.083       .  S
Fe244       O255   2.043       .  S
Fe244       O260   2.080       .  S
Fe244       O254   1.980       .  S
Fe245       O263   2.080       .  S
Fe245       O250   2.064       .  S
Fe245       O257   2.066       .  S
Fe245       O246   2.080       .  S
Fe245       O254   1.983       .  S
O246        C253   1.267       .  A
O247        C261   1.262       .  A
O248        C253   1.262       .  A
O249        C252   1.273       .  A
O250        C262   1.269       .  A
O251        C264   1.270       .  A
C252        O257   1.270       .  A
C252        C276   1.439       .  S
C253        C292   1.439       .  S
O255        C258   1.263       .  A
O256        C258   1.271       .  A
C258        C269   1.432       .  S
O259        C264   1.263       .  A
O260        C262   1.272       .  A
C261        O263   1.268       .  A
C261        C268   1.436       .  S
C262        C297   1.438       .  S
C264        C296   1.438       .  S
C265        C266   1.207       .  T
C266        C267   1.414       .  S
C267        C268   1.207       .  T
C269        C270   1.205       .  T
C270        C271   1.411       .  S
C271        C272   1.205       .  T
C273        C274   1.207       .  T
C274        C275   1.415       .  S
C275        C276   1.207       .  T
C277        C278   1.207       .  T
C278        C279   1.415       .  S
C279       C1096   1.207       .  T
C280       C1095   1.207       .  T
C281        C690   1.207       .  T
C282        C689   1.207       .  T
C282        C283   1.414       .  S
C283       C1100   1.207       .  T
C284       C1099   1.207       .  T
C285        C286   1.205       .  T
C286        C287   1.410       .  S
C287        C288   1.205       .  T
C289        C290   1.208       .  T
C290        C291   1.416       .  S
C291       C1108   1.208       .  T
C292       C1107   1.208       .  T
C293        C294   1.208       .  T
C294        C295   1.416       .  S
C295        C296   1.208       .  T
C297       C1114   1.207       .  T
C298       C1113   1.207       .  T
C298        C299   1.415       .  S
C299        C300   1.207       .  T
C301       C1118   1.208       .  T
C302       C1117   1.208       .  T
C302        C303   1.416       .  S
C303        C304   1.208       .  T
C305        C306   1.208       .  T
C306        C307   1.416       .  S
C307        C716   1.208       .  T
C308        C715   1.208       .  T
C309        C310   1.207       .  T
C310        C719   1.415       .  S
C311        C312   1.207       .  T
C311        C718   1.415       .  S
C313       C1130   1.207       .  T
C314       C1129   1.207       .  T
C314        C315   1.414       .  S
C315        C316   1.207       .  T
C317        C318   1.205       .  T
C318        C319   1.411       .  S
C319        C320   1.205       .  T
C321        C730   1.207       .  T
C322        C729   1.207       .  T
C322        C323   1.414       .  S
C323        C324   1.207       .  T
C325        C326   1.205       .  T
C326        C327   1.411       .  S
C327        C328   1.205       .  T
C329        C330   1.207       .  T
C330        C331   1.415       .  S
C331       C1148   1.207       .  T
C332       C1147   1.207       .  T
C333       C1150   1.208       .  T
C334       C1149   1.208       .  T
C334        C335   1.416       .  S
C335        C336   1.208       .  T
C337        C338   1.208   1_545  T
C338        C339   1.416       .  S
C339        C748   1.208       .  T
C340        C747   1.208       .  T
C341        C342   1.207   1_545  T
C342        C343   1.415       .  S
C343        C752   1.207       .  T
C344        C751   1.207       .  T
C345        C346   1.207       .  T
C346        C347   1.415       .  S
C347        C348   1.207       .  T
C349        C758   1.207       .  T
C350        C757   1.207       .  T
C350        C351   1.415       .  S
C351        C352   1.207   1_565  T
C353        C354   1.207       .  T
C354        C355   1.414       .  S
C355        C356   1.207       .  T
C357        C358   1.205       .  T
C358        C359   1.411       .  S
C359        C360   1.205       .  T
C361        C362   1.208       .  T
C362        C363   1.416       .  S
C363        C364   1.208       .  T
C365        C366   1.208   1_545  T
C366        C367   1.416       .  S
C367        C776   1.208       .  T
C368        C775   1.208       .  T
C369        C370   1.207       .  T
C370        C779   1.415       .  S
C371        C372   1.207       .  T
C371        C778   1.415       .  S
C373        C374   1.208       .  T
C374        C375   1.416       .  S
C375        C784   1.208       .  T
C376        C783   1.208       .  T
C377        C378   1.208       .  T
C378        C379   1.416       .  S
C379        C380   1.208       .  T
C381        C382   1.207       .  T
C382        C383   1.415       .  S
C383        C384   1.207       .  T
C385        C386   1.207       .  T
C386        C387   1.415       .  S
C387       C1204   1.207       .  T
C388       C1203   1.207       .  T
C389        C390   1.207       .  T
C390        C391   1.415       .  S
C391        C392   1.207       .  T
C393        C394   1.207       .  T
C394        C395   1.414       .  S
C395        C396   1.207       .  T
C397        C398   1.205       .  T
C398        C399   1.410       .  S
C399        C400   1.205       .  T
C401        C402   1.208       .  T
C402        C403   1.416       .  S
C403       C1220   1.208       .  T
C404       C1219   1.208       .  T
C405        C406   1.208       .  T
C406        C407   1.416       .  S
C407        C408   1.208       .  T
Fe409       O425   2.051       .  S
Fe409       O415   2.081   1_556  S
Fe409       O422   2.081       .  S
Fe409       O414   2.052   1_556  S
Fe409       O420   1.982       .  S
Fe410      O1229   2.047   1_455  S
Fe410       O417   2.082   1_455  S
Fe410       O421   2.043       .  S
Fe410       O426   2.080       .  S
Fe410       O420   1.980       .  S
Fe411       O429   2.080   1_455  S
Fe411       O416   2.064       .  S
Fe411       O423   2.066   1_556  S
Fe411       O412   2.080       .  S
Fe411       O420   1.983       .  S
O412        C419   1.267   1_556  A
O413      Fe1226   2.047       .  S
O413        C427   1.262       .  A
O414        C419   1.262       .  A
O415        C418   1.273       .  A
O416        C428   1.269       .  A
O417        C430   1.270       .  A
C418        O423   1.270       .  A
C418        C796   1.438   1_455  S
C419        C816   1.439       .  S
O421        C424   1.263       .  A
O422        C424   1.271       .  A
C424        C805   1.432       .  S
O425        C430   1.263   1_455  A
O426        C428   1.272       .  A
C427       O1245   1.268       .  A
C427        C801   1.436       .  S
C428        C797   1.438       .  S
O429       C1243   1.268       .  A
C430        C812   1.438       .  S
Fe431       O447   2.051       .  S
Fe431       O437   2.081       .  S
Fe431       O444   2.081       .  S
Fe431       O436   2.052       .  S
Fe431       O442   1.982       .  S
Fe432       O435   2.047   1_565  S
Fe432       O439   2.082   1_565  S
Fe432       O443   2.043       .  S
Fe432       O448   2.080       .  S
Fe432       O442   1.980       .  S
Fe433       O451   2.080       .  S
Fe433       O438   2.064       .  S
Fe433       O445   2.066       .  S
Fe433       O434   2.079       .  S
Fe433       O442   1.983       .  S
O434        C441   1.267       .  A
O436        C441   1.262       .  A
O437        C440   1.273       .  A
O438        C450   1.269       .  A
O439        C452   1.270       .  A
C440        O445   1.270       .  A
C440        C777   1.438   1_565  S
C441        C785   1.439       .  S
O443        C446   1.263       .  A
O444        C446   1.271       .  A
C446        C808   1.432       .  S
O447        C452   1.263   1_565  A
O448        C450   1.272       .  A
C449        C804   1.436       .  S
C450        C792   1.438       .  S
C452        C784   1.438       .  S
Fe453       O469   2.051       .  S
Fe453       O459   2.081       .  S
Fe453       O466   2.082       .  S
Fe453       O458   2.052       .  S
Fe453       O464   1.982       .  S
Fe454       O457   2.047       .  S
Fe454       O461   2.083       .  S
Fe454       O465   2.043       .  S
Fe454       O470   2.080       .  S
Fe454       O464   1.980       .  S
Fe455       O473   2.080       .  S
Fe455       O460   2.064       .  S
Fe455       O467   2.066       .  S
Fe455       O456   2.080       .  S
Fe455       O464   1.983       .  S
O456        C463   1.267       .  A
O457        C471   1.262       .  A
O458        C463   1.262       .  A
O459        C462   1.273       .  A
O460        C472   1.269       .  A
O461        C474   1.270       .  A
C462        O467   1.270       .  A
C462        C753   1.439       .  S
C463        C776   1.439       .  S
O465        C468   1.263       .  A
O466        C468   1.271       .  A
C468        C765   1.432       .  S
O469        C474   1.263       .  A
O470        C472   1.272       .  A
C471        O473   1.268       .  A
C471        C761   1.436       .  S
C472        C757   1.438       .  S
C474        C772   1.438       .  S
Fe475       O491   2.051       .  S
Fe475       O481   2.081       .  S
Fe475       O488   2.082       .  S
Fe475       O480   2.052       .  S
Fe475       O486   1.982       .  S
Fe476      O1295   2.047   1_455  S
Fe476       O483   2.082   1_455  S
Fe476       O487   2.043       .  S
Fe476       O492   2.080       .  S
Fe476       O486   1.980       .  S
Fe477       O495   2.080   1_455  S
Fe477       O482   2.064       .  S
Fe477       O489   2.066       .  S
Fe477       O478   2.079       .  S
Fe477       O486   1.983       .  S
O478        C485   1.267       .  A
O479      Fe1292   2.047       .  S
O479        C493   1.262       .  A
O480        C485   1.262       .  A
O481        C484   1.273       .  A
O482        C494   1.269       .  A
O483        C496   1.270       .  A
C484        O489   1.270       .  A
C484        C740   1.439   1_455  S
C485        C748   1.439       .  S
O487        C490   1.263       .  A
O488        C490   1.271       .  A
C490        C768   1.432       .  S
O491        C496   1.263   1_455  A
O492        C494   1.272       .  A
C493       O1311   1.268       .  A
C493        C764   1.436       .  S
C494        C752   1.438       .  S
O495       C1309   1.268       .  A
C496        C741   1.438       .  S
Fe497       O513   2.051       .  S
Fe497       O503   2.081       .  S
Fe497       O510   2.081       .  S
Fe497       O502   2.052       .  S
Fe497       O508   1.982       .  S
Fe498       O501   2.047       .  S
Fe498       O505   2.082       .  S
Fe498       O509   2.043       .  S
Fe498       O514   2.080       .  S
Fe498       O508   1.980       .  S
Fe499       O517   2.080       .  S
Fe499       O504   2.064       .  S
Fe499       O511   2.066       .  S
Fe499       O500   2.079       .  S
Fe499       O508   1.983       .  S
O500        C507   1.267       .  A
O501        C515   1.262       .  A
O502        C507   1.262       .  A
O503        C506   1.273       .  A
O504        C516   1.269       .  A
O505        C518   1.270       .  A
C506        O511   1.270       .  A
C506        C760   1.439       .  S
C507        C744   1.439       .  S
O509        C512   1.263       .  A
O510        C512   1.271       .  A
C512        C733   1.432       .  S
O513        C518   1.263       .  A
O514        C516   1.272       .  A
C515        O517   1.268       .  A
C515        C729   1.436       .  S
C516        C793   1.438       .  S
C518        C745   1.438       .  S
Fe519       O535   2.051       .  S
Fe519       O525   2.081   1_554  S
Fe519       O532   2.082       .  S
Fe519       O524   2.052       .  S
Fe519       O530   1.982       .  S
Fe520       O523   2.047       .  S
Fe520       O527   2.083       .  S
Fe520       O531   2.043       .  S
Fe520       O536   2.080       .  S
Fe520       O530   1.980       .  S
Fe521       O539   2.080       .  S
Fe521       O526   2.064       .  S
Fe521       O533   2.066       .  S
Fe521       O522   2.079       .  S
Fe521       O530   1.983       .  S
O522        C529   1.267       .  A
O523        C537   1.262       .  A
O524        C529   1.262       .  A
O525        C528   1.273       .  A
O526        C538   1.269       .  A
O527        C540   1.270       .  A
C528        O533   1.270   1_556  A
C528        C789   1.439       .  S
C529        C809   1.439   1_554  S
O531        C534   1.263       .  A
O532        C534   1.271       .  A
C534        C736   1.432       .  S
O535        C540   1.263       .  A
O536        C538   1.272       .  A
C537        O539   1.268       .  A
C537        C732   1.436       .  S
C538        C737   1.438       .  S
C540        C813   1.438       .  S
Fe541       O557   2.051       .  S
Fe541       O547   2.081       .  S
Fe541       O554   2.082       .  S
Fe541       O546   2.052       .  S
Fe541       O552   1.982       .  S
Fe542       O545   2.047       .  S
Fe542       O549   2.083       .  S
Fe542       O553   2.043       .  S
Fe542       O558   2.080       .  S
Fe542       O552   1.980       .  S
Fe543       O561   2.080       .  S
Fe543       O548   2.064       .  S
Fe543       O555   2.066       .  S
Fe543       O544   2.079       .  S
Fe543       O552   1.983       .  S
O544        C551   1.267       .  A
O545        C559   1.262       .  A
O546        C551   1.262       .  A
O547        C550   1.273       .  A
O548        C560   1.269       .  A
O549        C562   1.270       .  A
C550        O555   1.270       .  A
C550        C800   1.439       .  S
C551        C781   1.439       .  S
O553        C556   1.263       .  A
O554        C556   1.271       .  A
C556        C725   1.432       .  S
O557        C562   1.263       .  A
O558        C560   1.272       .  A
C559        O561   1.268       .  A
C559        C724   1.436       .  S
C560        C717   1.438       .  S
C562        C788   1.438       .  S
Fe563       O579   2.051       .  S
Fe563       O569   2.081       .  S
Fe563       O576   2.082       .  S
Fe563       O568   2.052       .  S
Fe563       O574   1.982       .  S
Fe564       O567   2.047       .  S
Fe564       O571   2.082       .  S
Fe564       O575   2.043       .  S
Fe564       O580   2.080       .  S
Fe564       O574   1.980       .  S
Fe565       O583   2.080       .  S
Fe565       O570   2.064       .  S
Fe565       O577   2.066       .  S
Fe565       O566   2.079       .  S
Fe565       O574   1.983       .  S
O566        C573   1.267       .  A
O567        C581   1.262       .  A
O568        C573   1.262       .  A
O569        C572   1.273       .  A
O570        C582   1.269       .  A
O571        C584   1.270       .  A
C572        O577   1.270       .  A
C572        C708   1.439       .  S
C573        C713   1.439       .  S
O575        C578   1.263       .  A
O576        C578   1.271       .  A
C578        C728   1.432       .  S
O579        C584   1.263       .  A
O580        C582   1.272       .  A
C581        O583   1.268       .  A
C581        C721   1.436       .  S
C582        C780   1.438       .  S
C584        C712   1.438       .  S
Fe585       O601   2.051       .  S
Fe585       O591   2.081       .  S
Fe585       O598   2.081       .  S
Fe585       O590   2.052       .  S
Fe585       O596   1.982       .  S
Fe586       O589   2.047       .  S
Fe586       O593   2.082       .  S
Fe586       O597   2.043       .  S
Fe586       O602   2.080       .  S
Fe586       O596   1.980       .  S
Fe587       O605   2.080       .  S
Fe587       O592   2.064       .  S
Fe587       O599   2.066       .  S
Fe587       O588   2.080       .  S
Fe587       O596   1.983       .  S
O588        C595   1.267       .  A
O589        C603   1.262       .  A
O590        C595   1.262       .  A
O591        C594   1.273       .  A
O592        C604   1.269       .  A
O593        C606   1.270       .  A
C594        O599   1.270       .  A
C594        C685   1.438       .  S
C595        C701   1.439       .  S
O597        C600   1.263       .  A
O598        C600   1.271       .  A
C600        C693   1.432       .  S
O601        C606   1.263       .  A
O602        C604   1.272       .  A
C603        O605   1.268       .  A
C603        C692   1.436       .  S
C604        C756   1.438       .  S
C606        C697   1.438       .  S
Fe607       O623   2.051       .  S
Fe607       O613   2.081       .  S
Fe607       O620   2.081       .  S
Fe607       O612   2.052       .  S
Fe607       O618   1.982       .  S
Fe608       O611   2.047       .  S
Fe608       O615   2.082       .  S
Fe608       O619   2.043       .  S
Fe608       O624   2.080       .  S
Fe608       O618   1.980       .  S
Fe609       O627   2.080       .  S
Fe609       O614   2.064       .  S
Fe609       O621   2.066       .  S
Fe609       O610   2.079       .  S
Fe609       O618   1.983       .  S
O610        C617   1.267       .  A
O611        C625   1.262       .  A
O612        C617   1.262       .  A
O613        C616   1.273       .  A
O614        C626   1.269       .  A
O615        C628   1.270       .  A
C616        O621   1.270       .  A
C616        C749   1.438       .  S
C617        C769   1.439       .  S
O619        C622   1.263       .  A
O620        C622   1.271       .  A
C622        C696   1.432       .  S
O623        C628   1.263       .  A
O624        C626   1.272       .  A
C625        O627   1.268       .  A
C625        C689   1.436       .  S
C626        C681   1.438       .  S
C628        C773   1.438       .  S
Fe629       O645   2.051       .  S
Fe629       O635   2.081       .  S
Fe629       O642   2.082       .  S
Fe629       O634   2.052       .  S
Fe629       O640   1.982       .  S
Fe630       O633   2.047   1_565  S
Fe630       O637   2.082   1_565  S
Fe630       O641   2.043       .  S
Fe630       O646   2.080       .  S
Fe630       O640   1.980       .  S
Fe631       O649   2.080       .  S
Fe631       O636   2.064       .  S
Fe631       O643   2.066       .  S
Fe631       O632   2.079       .  S
Fe631       O640   1.983       .  S
O632        C639   1.267       .  A
O634        C639   1.262       .  A
O635        C638   1.273       .  A
O636        C648   1.269       .  A
O637        C650   1.270       .  A
C638        O643   1.270       .  A
C638        C720   1.439   1_565  S
C639        C709   1.439       .  S
O641        C644   1.263       .  A
O642        C644   1.271       .  A
C644        C680   1.432       .  S
O645        C650   1.263   1_565  A
O646        C648   1.272       .  A
C647        C673   1.436       .  S
C648        C688   1.438       .  S
C650        C716   1.438       .  S
Fe651       O667   2.051       .  S
Fe651       O657   2.081       .  S
Fe651       O664   2.082       .  S
Fe651       O656   2.052       .  S
Fe651       O662   1.982       .  S
Fe652       O655   2.047       .  S
Fe652       O659   2.083       .  S
Fe652       O663   2.043       .  S
Fe652       O668   2.080       .  S
Fe652       O662   1.980       .  S
Fe653       O671   2.080       .  S
Fe653       O658   2.064       .  S
Fe653       O665   2.066       .  S
Fe653       O654   2.080       .  S
Fe653       O662   1.983       .  S
O654        C661   1.267       .  A
O655        C669   1.262       .  A
O656        C661   1.262       .  A
O657        C660   1.273       .  A
O658        C670   1.269       .  A
O659        C672   1.270       .  A
C660        O665   1.270       .  A
C660        C684   1.439       .  S
C661        C700   1.439       .  S
O663        C666   1.263       .  A
O664        C666   1.271       .  A
C666        C677   1.432       .  S
O667        C672   1.263       .  A
O668        C670   1.272       .  A
C669        O671   1.268       .  A
C669        C676   1.436       .  S
C670        C705   1.438       .  S
C672        C704   1.438       .  S
C673        C674   1.207       .  T
C674        C675   1.414       .  S
C675        C676   1.207       .  T
C677        C678   1.205       .  T
C678        C679   1.411       .  S
C679        C680   1.205       .  T
C681        C682   1.207       .  T
C682        C683   1.415       .  S
C683        C684   1.207       .  T
C685        C686   1.207       .  T
C686        C687   1.415       .  S
C687       C1504   1.207       .  T
C688       C1503   1.207       .  T
C690        C691   1.414       .  S
C691       C1508   1.207       .  T
C692       C1507   1.207       .  T
C693        C694   1.205       .  T
C694        C695   1.410       .  S
C695        C696   1.205       .  T
C697        C698   1.208       .  T
C698        C699   1.416       .  S
C699       C1516   1.208       .  T
C700       C1515   1.208       .  T
C701        C702   1.208       .  T
C702        C703   1.416       .  S
C703        C704   1.208       .  T
C705       C1522   1.207       .  T
C706       C1521   1.207       .  T
C706        C707   1.415       .  S
C707        C708   1.207       .  T
C709       C1526   1.208       .  T
C710       C1525   1.208       .  T
C710        C711   1.416       .  S
C711        C712   1.208       .  T
C713        C714   1.208       .  T
C714        C715   1.416       .  S
C717        C718   1.207       .  T
C719        C720   1.207       .  T
C721       C1538   1.207       .  T
C722       C1537   1.207       .  T
C722        C723   1.414       .  S
C723        C724   1.207       .  T
C725        C726   1.205       .  T
C726        C727   1.411       .  S
C727        C728   1.205       .  T
C730        C731   1.414       .  S
C731        C732   1.207       .  T
C733        C734   1.205       .  T
C734        C735   1.411       .  S
C735        C736   1.205       .  T
C737        C738   1.207       .  T
C738        C739   1.415       .  S
C739       C1556   1.207       .  T
C740       C1555   1.207       .  T
C741       C1558   1.208       .  T
C742       C1557   1.208       .  T
C742        C743   1.416       .  S
C743        C744   1.208       .  T
C745        C746   1.208       .  T
C746        C747   1.416       .  S
C749        C750   1.207       .  T
C750        C751   1.415       .  S
C753        C754   1.207       .  T
C754        C755   1.415       .  S
C755        C756   1.207       .  T
C758        C759   1.415       .  S
C759        C760   1.207       .  T
C761        C762   1.207       .  T
C762        C763   1.414       .  S
C763        C764   1.207       .  T
C765        C766   1.205       .  T
C766        C767   1.411       .  S
C767        C768   1.205       .  T
C769        C770   1.208       .  T
C770        C771   1.416       .  S
C771        C772   1.208       .  T
C773        C774   1.208       .  T
C774        C775   1.416       .  S
C777        C778   1.207       .  T
C779        C780   1.207       .  T
C781        C782   1.208       .  T
C782        C783   1.416       .  S
C785        C786   1.208       .  T
C786        C787   1.416       .  S
C787        C788   1.208       .  T
C789        C790   1.207       .  T
C790        C791   1.415       .  S
C791        C792   1.207       .  T
C793        C794   1.207       .  T
C794        C795   1.415       .  S
C795       C1612   1.207       .  T
C796       C1611   1.207       .  T
C797        C798   1.207       .  T
C798        C799   1.415       .  S
C799        C800   1.207       .  T
C801        C802   1.207       .  T
C802        C803   1.414       .  S
C803        C804   1.207       .  T
C805        C806   1.205       .  T
C806        C807   1.410       .  S
C807        C808   1.205       .  T
C809        C810   1.208       .  T
C810        C811   1.416       .  S
C811       C1628   1.208       .  T
C812       C1627   1.208       .  T
C813        C814   1.208       .  T
C814        C815   1.416       .  S
C815        C816   1.208       .  T
Fe817       O833   2.051       .  S
Fe817       O823   2.081   1_556  S
Fe817       O830   2.081       .  S
Fe817       O822   2.052   1_556  S
Fe817       O828   1.982       .  S
Fe818       O825   2.082       .  S
Fe818       O829   2.043       .  S
Fe818       O834   2.080       .  S
Fe818       O828   1.980       .  S
Fe819       O837   2.080       .  S
Fe819       O824   2.064       .  S
Fe819       O831   2.066   1_556  S
Fe819       O820   2.080       .  S
Fe819       O828   1.983       .  S
O820        C827   1.267   1_556  A
O821        C835   1.262       .  A
O822        C827   1.262       .  A
O823        C826   1.273       .  A
O824        C836   1.269       .  A
O825        C838   1.270       .  A
C826        O831   1.270       .  A
C826       C1204   1.438       .  S
C827       C1224   1.439       .  S
O829        C832   1.263       .  A
O830        C832   1.271       .  A
C832       C1213   1.432       .  S
O833        C838   1.263       .  A
O834        C836   1.272       .  A
C835       C1209   1.436       .  S
C836       C1205   1.438       .  S
C838       C1220   1.438       .  S
Fe839       O855   2.051       .  S
Fe839       O845   2.081       .  S
Fe839       O852   2.081       .  S
Fe839       O844   2.052       .  S
Fe839       O850   1.982       .  S
Fe840       O843   2.047       .  S
Fe840       O847   2.082       .  S
Fe840       O851   2.043       .  S
Fe840       O856   2.080       .  S
Fe840       O850   1.980       .  S
Fe841       O859   2.080       .  S
Fe841       O846   2.064       .  S
Fe841       O853   2.066       .  S
Fe841       O842   2.079       .  S
Fe841       O850   1.983       .  S
O842        C849   1.267       .  A
O843       C1265   1.262       .  A
O844        C849   1.262       .  A
O845        C848   1.273       .  A
O846        C858   1.269       .  A
O847        C860   1.270       .  A
C848        O853   1.270       .  A
C848       C1185   1.438       .  S
C849       C1193   1.439       .  S
O851        C854   1.263       .  A
O852        C854   1.271       .  A
C854       C1216   1.432       .  S
O855        C860   1.263       .  A
O856        C858   1.272       .  A
C857       O1251   1.262       .  A
C857       O1267   1.268   1_545  A
C857       C1212   1.436       .  S
C858       C1200   1.438       .  S
O859       C1265   1.268       .  A
C860       C1192   1.438       .  S
Fe861       O877   2.051       .  S
Fe861       O867   2.081       .  S
Fe861       O874   2.082       .  S
Fe861       O866   2.052       .  S
Fe861       O872   1.982       .  S
Fe862       O865   2.047       .  S
Fe862       O869   2.083       .  S
Fe862       O873   2.043       .  S
Fe862       O878   2.080       .  S
Fe862       O872   1.980       .  S
Fe863       O881   2.080       .  S
Fe863       O868   2.064       .  S
Fe863       O875   2.066       .  S
Fe863       O864   2.080       .  S
Fe863       O872   1.983       .  S
O864        C871   1.267       .  A
O865        C879   1.262       .  A
O866        C871   1.262       .  A
O867        C870   1.273       .  A
O868        C880   1.269       .  A
O869        C882   1.270       .  A
C870        O875   1.270       .  A
C870       C1161   1.439       .  S
C871       C1184   1.439       .  S
O873        C876   1.263       .  A
O874        C876   1.271       .  A
C876       C1173   1.432       .  S
O877        C882   1.263       .  A
O878        C880   1.272       .  A
C879        O881   1.268       .  A
C879       C1169   1.436       .  S
C880       C1165   1.438       .  S
C882       C1180   1.438       .  S
Fe883       O899   2.051       .  S
Fe883       O889   2.081       .  S
Fe883       O896   2.082       .  S
Fe883       O888   2.052       .  S
Fe883       O894   1.982       .  S
Fe884       O891   2.082       .  S
Fe884       O895   2.043       .  S
Fe884       O900   2.080       .  S
Fe884       O894   1.980       .  S
Fe885       O903   2.080       .  S
Fe885       O890   2.064       .  S
Fe885       O897   2.066       .  S
Fe885       O886   2.079       .  S
Fe885       O894   1.983       .  S
O886        C893   1.267       .  A
O887        C901   1.262       .  A
O888        C893   1.262       .  A
O889        C892   1.273       .  A
O890        C902   1.269       .  A
O891        C904   1.270       .  A
C892        O897   1.270       .  A
C892       C1148   1.439       .  S
C893       C1156   1.439       .  S
O895        C898   1.263       .  A
O896        C898   1.271       .  A
C898       C1176   1.432       .  S
O899        C904   1.263       .  A
O900        C902   1.272       .  A
C901       C1172   1.436       .  S
C902       C1160   1.438       .  S
C904       C1149   1.438       .  S
Fe905       O921   2.051       .  S
Fe905       O911   2.081       .  S
Fe905       O918   2.081       .  S
Fe905       O910   2.052       .  S
Fe905       O916   1.982       .  S
Fe906       O909   2.047       .  S
Fe906       O913   2.082       .  S
Fe906       O917   2.043       .  S
Fe906       O922   2.080       .  S
Fe906       O916   1.980       .  S
Fe907       O925   2.080       .  S
Fe907       O912   2.064       .  S
Fe907       O919   2.066       .  S
Fe907       O908   2.079       .  S
Fe907       O916   1.983       .  S
O908        C915   1.267       .  A
O909        C923   1.262       .  A
O910        C915   1.262       .  A
O911        C914   1.273       .  A
O912        C924   1.269       .  A
O913        C926   1.270       .  A
C914        O919   1.270       .  A
C914       C1168   1.439       .  S
C915       C1152   1.439       .  S
O917        C920   1.263       .  A
O918        C920   1.271       .  A
C920       C1141   1.432       .  S
O921        C926   1.263       .  A
O922        C924   1.272       .  A
C923        O925   1.268       .  A
C923       C1137   1.436   1_545  S
C924       C1201   1.438       .  S
C926       C1153   1.438       .  S
Fe927       O943   2.051       .  S
Fe927       O933   2.081   1_554  S
Fe927       O940   2.082       .  S
Fe927       O932   2.052       .  S
Fe927       O938   1.982       .  S
Fe928       O931   2.047       .  S
Fe928       O935   2.083       .  S
Fe928       O939   2.043       .  S
Fe928       O944   2.080       .  S
Fe928       O938   1.980       .  S
Fe929       O947   2.080       .  S
Fe929       O934   2.064       .  S
Fe929       O941   2.066       .  S
Fe929       O930   2.079       .  S
Fe929       O938   1.983       .  S
O930        C937   1.267       .  A
O931        C945   1.262       .  A
O932        C937   1.262       .  A
O933        C936   1.273       .  A
O934        C946   1.269       .  A
O935        C948   1.270       .  A
C936        O941   1.270   1_556  A
C936       C1197   1.439       .  S
C937       C1217   1.439   1_554  S
O939        C942   1.263       .  A
O940        C942   1.271       .  A
C942       C1144   1.432       .  S
O943        C948   1.263       .  A
O944        C946   1.272       .  A
C945        O947   1.268       .  A
C945       C1140   1.436       .  S
C946       C1145   1.438       .  S
C948       C1221   1.438       .  S
Fe949       O965   2.051       .  S
Fe949       O955   2.081       .  S
Fe949       O962   2.082       .  S
Fe949       O954   2.052       .  S
Fe949       O960   1.982       .  S
Fe950       O953   2.047       .  S
Fe950       O957   2.083       .  S
Fe950       O961   2.043       .  S
Fe950       O966   2.080       .  S
Fe950       O960   1.980       .  S
Fe951       O969   2.080       .  S
Fe951       O956   2.064       .  S
Fe951       O963   2.066       .  S
Fe951       O952   2.079       .  S
Fe951       O960   1.983       .  S
O952        C959   1.267       .  A
O953        C967   1.262       .  A
O954        C959   1.262       .  A
O955        C958   1.273       .  A
O956        C968   1.269       .  A
O957        C970   1.270       .  A
C958        O963   1.270       .  A
C958       C1208   1.439       .  S
C959       C1189   1.439       .  S
O961        C964   1.263       .  A
O962        C964   1.271       .  A
C964       C1133   1.432       .  S
O965        C970   1.263       .  A
O966        C968   1.272       .  A
C967        O969   1.268       .  A
C967       C1132   1.436       .  S
C968       C1125   1.438       .  S
C970       C1196   1.438       .  S
Fe971       O987   2.051       .  S
Fe971       O977   2.081       .  S
Fe971       O984   2.082       .  S
Fe971       O976   2.052       .  S
Fe971       O982   1.982       .  S
Fe972       O975   2.047       .  S
Fe972       O979   2.082       .  S
Fe972       O983   2.043       .  S
Fe972       O988   2.080       .  S
Fe972       O982   1.980       .  S
Fe973       O991   2.080       .  S
Fe973       O978   2.064       .  S
Fe973       O985   2.066       .  S
Fe973       O974   2.079       .  S
Fe973       O982   1.983       .  S
O974        C981   1.267       .  A
O975        C989   1.262       .  A
O976        C981   1.262       .  A
O977        C980   1.273       .  A
O978        C990   1.269       .  A
O979        C992   1.270       .  A
C980        O985   1.270       .  A
C980       C1116   1.439       .  S
C981       C1121   1.439       .  S
O983        C986   1.263       .  A
O984        C986   1.271       .  A
C986       C1136   1.432       .  S
O987        C992   1.263       .  A
O988        C990   1.272       .  A
C989        O991   1.268       .  A
C989       C1129   1.436   1_655  S
C990       C1188   1.438       .  S
C992       C1120   1.438       .  S
Fe993      O1009   2.051       .  S
Fe993       O999   2.081       .  S
Fe993      O1006   2.081       .  S
Fe993       O998   2.052       .  S
Fe993      O1004   1.982       .  S
Fe994       O997   2.047       .  S
Fe994      O1001   2.082       .  S
Fe994      O1005   2.043       .  S
Fe994      O1010   2.080       .  S
Fe994      O1004   1.980       .  S
Fe995      O1013   2.080       .  S
Fe995      O1000   2.064       .  S
Fe995      O1007   2.066       .  S
Fe995       O996   2.080       .  S
Fe995      O1004   1.983       .  S
O996       C1003   1.267       .  A
O997       C1011   1.262       .  A
O998       C1003   1.262       .  A
O999       C1002   1.273       .  A
O1000      C1012   1.269       .  A
O1001      C1014   1.270       .  A
C1002      O1007   1.270       .  A
C1002      C1093   1.438       .  S
C1003      C1109   1.439       .  S
O1005      C1008   1.263       .  A
O1006      C1008   1.271       .  A
C1008      C1101   1.432       .  S
O1009      C1014   1.263       .  A
O1010      C1012   1.272       .  A
C1011      O1013   1.268       .  A
C1011      C1100   1.436   1_655  S
C1012      C1164   1.438       .  S
C1014      C1105   1.438       .  S
Fe1015     O1031   2.051       .  S
Fe1015     O1021   2.081       .  S
Fe1015     O1028   2.081       .  S
Fe1015     O1020   2.052       .  S
Fe1015     O1026   1.982       .  S
Fe1016     O1019   2.047       .  S
Fe1016     O1023   2.082       .  S
Fe1016     O1027   2.043       .  S
Fe1016     O1032   2.080       .  S
Fe1016     O1026   1.980       .  S
Fe1017     O1035   2.080       .  S
Fe1017     O1022   2.064       .  S
Fe1017     O1029   2.066       .  S
Fe1017     O1018   2.079       .  S
Fe1017     O1026   1.983       .  S
O1018      C1025   1.267       .  A
O1019      C1033   1.262       .  A
O1020      C1025   1.262       .  A
O1021      C1024   1.273       .  A
O1022      C1034   1.269       .  A
O1023      C1036   1.270       .  A
C1024      O1029   1.270       .  A
C1024      C1157   1.438       .  S
C1025      C1177   1.439       .  S
O1027      C1030   1.263       .  A
O1028      C1030   1.271       .  A
C1030      C1104   1.432       .  S
O1031      C1036   1.263       .  A
O1032      C1034   1.272       .  A
C1033      O1035   1.268       .  A
C1033      C1097   1.436   1_545  S
C1034      C1089   1.438       .  S
C1036      C1181   1.438       .  S
Fe1037     O1053   2.051       .  S
Fe1037     O1043   2.081       .  S
Fe1037     O1050   2.082       .  S
Fe1037     O1042   2.052       .  S
Fe1037     O1048   1.982       .  S
Fe1038     O1041   2.047       .  S
Fe1038     O1045   2.082       .  S
Fe1038     O1049   2.043       .  S
Fe1038     O1054   2.080       .  S
Fe1038     O1048   1.980       .  S
Fe1039     O1057   2.080       .  S
Fe1039     O1044   2.064       .  S
Fe1039     O1051   2.066       .  S
Fe1039     O1040   2.079       .  S
Fe1039     O1048   1.983       .  S
O1040      C1047   1.267       .  A
O1041      C1463   1.262       .  A
O1042      C1047   1.262       .  A
O1043      C1046   1.273       .  A
O1044      C1056   1.269       .  A
O1045      C1058   1.270       .  A
C1046      O1051   1.270       .  A
C1046      C1128   1.439       .  S
C1047      C1117   1.439       .  S
O1049      C1052   1.263       .  A
O1050      C1052   1.271       .  A
C1052      C1088   1.432       .  S
O1053      C1058   1.263       .  A
O1054      C1056   1.272       .  A
C1055      O1449   1.262       .  A
C1055      O1465   1.268   1_545  A
C1055      C1081   1.436       .  S
C1056      C1096   1.438       .  S
O1057      C1463   1.268       .  A
C1058      C1124   1.438       .  S
Fe1059     O1075   2.051       .  S
Fe1059     O1065   2.081       .  S
Fe1059     O1072   2.082       .  S
Fe1059     O1064   2.052       .  S
Fe1059     O1070   1.982       .  S
Fe1060     O1063   2.047       .  S
Fe1060     O1067   2.083       .  S
Fe1060     O1071   2.043       .  S
Fe1060     O1076   2.080       .  S
Fe1060     O1070   1.980       .  S
Fe1061     O1079   2.080       .  S
Fe1061     O1066   2.064       .  S
Fe1061     O1073   2.066       .  S
Fe1061     O1062   2.080       .  S
Fe1061     O1070   1.983       .  S
O1062      C1069   1.267       .  A
O1063      C1077   1.262       .  A
O1064      C1069   1.262       .  A
O1065      C1068   1.273       .  A
O1066      C1078   1.269       .  A
O1067      C1080   1.270       .  A
C1068      O1073   1.270       .  A
C1068      C1092   1.439       .  S
C1069      C1108   1.439       .  S
O1071      C1074   1.263       .  A
O1072      C1074   1.271       .  A
C1074      C1085   1.432       .  S
O1075      C1080   1.263       .  A
O1076      C1078   1.272       .  A
C1077      O1079   1.268       .  A
C1077      C1084   1.436       .  S
C1078      C1113   1.438       .  S
C1080      C1112   1.438       .  S
C1081      C1082   1.207       .  T
C1082      C1083   1.414       .  S
C1083      C1084   1.207       .  T
C1085      C1086   1.205       .  T
C1086      C1087   1.411       .  S
C1087      C1088   1.205       .  T
C1089      C1090   1.207       .  T
C1090      C1091   1.415       .  S
C1091      C1092   1.207       .  T
C1093      C1094   1.207       .  T
C1094      C1095   1.415   1_655  S
C1097      C1506   1.207       .  T
C1098      C1505   1.207       .  T
C1098      C1099   1.414       .  S
C1101      C1102   1.205       .  T
C1102      C1103   1.410       .  S
C1103      C1104   1.205       .  T
C1105      C1106   1.208   1_655  T
C1106      C1107   1.416       .  S
C1109      C1110   1.208       .  T
C1110      C1111   1.416       .  S
C1111      C1112   1.208       .  T
C1114      C1115   1.415   1_455  S
C1115      C1116   1.207       .  T
C1118      C1119   1.416       .  S
C1119      C1120   1.208   1_455  T
C1121      C1122   1.208       .  T
C1122      C1123   1.416       .  S
C1123      C1532   1.208       .  T
C1124      C1531   1.208       .  T
C1125      C1126   1.207       .  T
C1126      C1535   1.415       .  S
C1127      C1128   1.207       .  T
C1127      C1534   1.415       .  S
C1130      C1131   1.414       .  S
C1131      C1132   1.207       .  T
C1133      C1134   1.205       .  T
C1134      C1135   1.411       .  S
C1135      C1136   1.205       .  T
C1137      C1546   1.207       .  T
C1138      C1545   1.207       .  T
C1138      C1139   1.414       .  S
C1139      C1140   1.207       .  T
C1141      C1142   1.205       .  T
C1142      C1143   1.411       .  S
C1143      C1144   1.205       .  T
C1145      C1146   1.207       .  T
C1146      C1147   1.415       .  S
C1150      C1151   1.416       .  S
C1151      C1152   1.208       .  T
C1153      C1154   1.208   1_545  T
C1154      C1155   1.416       .  S
C1155      C1564   1.208       .  T
C1156      C1563   1.208       .  T
C1157      C1158   1.207   1_545  T
C1158      C1159   1.415       .  S
C1159      C1568   1.207       .  T
C1160      C1567   1.207       .  T
C1161      C1162   1.207       .  T
C1162      C1163   1.415       .  S
C1163      C1164   1.207       .  T
C1165      C1574   1.207       .  T
C1166      C1573   1.207       .  T
C1166      C1167   1.415       .  S
C1167      C1168   1.207   1_565  T
C1169      C1170   1.207       .  T
C1170      C1171   1.414       .  S
C1171      C1172   1.207       .  T
C1173      C1174   1.205       .  T
C1174      C1175   1.411       .  S
C1175      C1176   1.205       .  T
C1177      C1178   1.208       .  T
C1178      C1179   1.416       .  S
C1179      C1180   1.208       .  T
C1181      C1182   1.208   1_545  T
C1182      C1183   1.416       .  S
C1183      C1592   1.208       .  T
C1184      C1591   1.208       .  T
C1185      C1186   1.207       .  T
C1186      C1595   1.415       .  S
C1187      C1188   1.207       .  T
C1187      C1594   1.415       .  S
C1189      C1190   1.208       .  T
C1190      C1191   1.416       .  S
C1191      C1600   1.208       .  T
C1192      C1599   1.208       .  T
C1193      C1194   1.208       .  T
C1194      C1195   1.416       .  S
C1195      C1196   1.208       .  T
C1197      C1198   1.207       .  T
C1198      C1199   1.415       .  S
C1199      C1200   1.207       .  T
C1201      C1202   1.207       .  T
C1202      C1203   1.415       .  S
C1205      C1206   1.207       .  T
C1206      C1207   1.415       .  S
C1207      C1208   1.207       .  T
C1209      C1210   1.207       .  T
C1210      C1211   1.414       .  S
C1211      C1212   1.207       .  T
C1213      C1214   1.205       .  T
C1214      C1215   1.410       .  S
C1215      C1216   1.205       .  T
C1217      C1218   1.208       .  T
C1218      C1219   1.416       .  S
C1221      C1222   1.208       .  T
C1222      C1223   1.416       .  S
C1223      C1224   1.208       .  T
Fe1225     O1241   2.051       .  S
Fe1225     O1231   2.081   1_556  S
Fe1225     O1238   2.081       .  S
Fe1225     O1230   2.052   1_556  S
Fe1225     O1236   1.982       .  S
Fe1226     O1233   2.082       .  S
Fe1226     O1237   2.043       .  S
Fe1226     O1242   2.080       .  S
Fe1226     O1236   1.980       .  S
Fe1227     O1245   2.080       .  S
Fe1227     O1232   2.064       .  S
Fe1227     O1239   2.066   1_556  S
Fe1227     O1228   2.080       .  S
Fe1227     O1236   1.983       .  S
O1228      C1235   1.267   1_556  A
O1229      C1243   1.262       .  A
O1230      C1235   1.262       .  A
O1231      C1234   1.273       .  A
O1232      C1244   1.269       .  A
O1233      C1246   1.270       .  A
C1234      O1239   1.270       .  A
C1234      C1612   1.438       .  S
C1235      C1632   1.439       .  S
O1237      C1240   1.263       .  A
O1238      C1240   1.271       .  A
C1240      C1621   1.432       .  S
O1241      C1246   1.263       .  A
O1242      C1244   1.272       .  A
C1243      C1617   1.436       .  S
C1244      C1613   1.438       .  S
C1246      C1628   1.438       .  S
Fe1247     O1263   2.051       .  S
Fe1247     O1253   2.081       .  S
Fe1247     O1260   2.081       .  S
Fe1247     O1252   2.052       .  S
Fe1247     O1258   1.982       .  S
Fe1248     O1251   2.047   1_565  S
Fe1248     O1255   2.082   1_565  S
Fe1248     O1259   2.043       .  S
Fe1248     O1264   2.080       .  S
Fe1248     O1258   1.980       .  S
Fe1249     O1267   2.080       .  S
Fe1249     O1254   2.064       .  S
Fe1249     O1261   2.066       .  S
Fe1249     O1250   2.079       .  S
Fe1249     O1258   1.983       .  S
O1250      C1257   1.267       .  A
O1252      C1257   1.262       .  A
O1253      C1256   1.273       .  A
O1254      C1266   1.269       .  A
O1255      C1268   1.270       .  A
C1256      O1261   1.270       .  A
C1256      C1593   1.438   1_565  S
C1257      C1601   1.439       .  S
O1259      C1262   1.263       .  A
O1260      C1262   1.271       .  A
C1262      C1624   1.432       .  S
O1263      C1268   1.263   1_565  A
O1264      C1266   1.272       .  A
C1265      C1620   1.436       .  S
C1266      C1608   1.438       .  S
C1268      C1600   1.438       .  S
Fe1269     O1285   2.051       .  S
Fe1269     O1275   2.081       .  S
Fe1269     O1282   2.082       .  S
Fe1269     O1274   2.052       .  S
Fe1269     O1280   1.982       .  S
Fe1270     O1273   2.047       .  S
Fe1270     O1277   2.083       .  S
Fe1270     O1281   2.043       .  S
Fe1270     O1286   2.080       .  S
Fe1270     O1280   1.980       .  S
Fe1271     O1289   2.080       .  S
Fe1271     O1276   2.064       .  S
Fe1271     O1283   2.066       .  S
Fe1271     O1272   2.080       .  S
Fe1271     O1280   1.983       .  S
O1272      C1279   1.267       .  A
O1273      C1287   1.262       .  A
O1274      C1279   1.262       .  A
O1275      C1278   1.273       .  A
O1276      C1288   1.269       .  A
O1277      C1290   1.270       .  A
C1278      O1283   1.270       .  A
C1278      C1569   1.439       .  S
C1279      C1592   1.439       .  S
O1281      C1284   1.263       .  A
O1282      C1284   1.271       .  A
C1284      C1581   1.432       .  S
O1285      C1290   1.263       .  A
O1286      C1288   1.272       .  A
C1287      O1289   1.268       .  A
C1287      C1577   1.436       .  S
C1288      C1573   1.438       .  S
C1290      C1588   1.438       .  S
Fe1291     O1307   2.051       .  S
Fe1291     O1297   2.081       .  S
Fe1291     O1304   2.082       .  S
Fe1291     O1296   2.052       .  S
Fe1291     O1302   1.982       .  S
Fe1292     O1299   2.082       .  S
Fe1292     O1303   2.043       .  S
Fe1292     O1308   2.080       .  S
Fe1292     O1302   1.980       .  S
Fe1293     O1311   2.080       .  S
Fe1293     O1298   2.064       .  S
Fe1293     O1305   2.066       .  S
Fe1293     O1294   2.079       .  S
Fe1293     O1302   1.983       .  S
O1294      C1301   1.267       .  A
O1295      C1309   1.262       .  A
O1296      C1301   1.262       .  A
O1297      C1300   1.273       .  A
O1298      C1310   1.269       .  A
O1299      C1312   1.270       .  A
C1300      O1305   1.270       .  A
C1300      C1556   1.439       .  S
C1301      C1564   1.439       .  S
O1303      C1306   1.263       .  A
O1304      C1306   1.271       .  A
C1306      C1584   1.432       .  S
O1307      C1312   1.263       .  A
O1308      C1310   1.272       .  A
C1309      C1580   1.436       .  S
C1310      C1568   1.438       .  S
C1312      C1557   1.438       .  S
Fe1313     O1329   2.051       .  S
Fe1313     O1319   2.081       .  S
Fe1313     O1326   2.081       .  S
Fe1313     O1318   2.052       .  S
Fe1313     O1324   1.982       .  S
Fe1314     O1317   2.047       .  S
Fe1314     O1321   2.082       .  S
Fe1314     O1325   2.043       .  S
Fe1314     O1330   2.080       .  S
Fe1314     O1324   1.980       .  S
Fe1315     O1333   2.080       .  S
Fe1315     O1320   2.064       .  S
Fe1315     O1327   2.066       .  S
Fe1315     O1316   2.079       .  S
Fe1315     O1324   1.983       .  S
O1316      C1323   1.267       .  A
O1317      C1331   1.262       .  A
O1318      C1323   1.262       .  A
O1319      C1322   1.273       .  A
O1320      C1332   1.269       .  A
O1321      C1334   1.270       .  A
C1322      O1327   1.270       .  A
C1322      C1576   1.439       .  S
C1323      C1560   1.439       .  S
O1325      C1328   1.263       .  A
O1326      C1328   1.271       .  A
C1328      C1549   1.432       .  S
O1329      C1334   1.263       .  A
O1330      C1332   1.272       .  A
C1331      O1333   1.268       .  A
C1331      C1545   1.436       .  S
C1332      C1609   1.438       .  S
C1334      C1561   1.438       .  S
Fe1335     O1351   2.051       .  S
Fe1335     O1341   2.081   1_554  S
Fe1335     O1348   2.082       .  S
Fe1335     O1340   2.052       .  S
Fe1335     O1346   1.982       .  S
Fe1336     O1339   2.047       .  S
Fe1336     O1343   2.083       .  S
Fe1336     O1347   2.043       .  S
Fe1336     O1352   2.080       .  S
Fe1336     O1346   1.980       .  S
Fe1337     O1355   2.080       .  S
Fe1337     O1342   2.064       .  S
Fe1337     O1349   2.066       .  S
Fe1337     O1338   2.079       .  S
Fe1337     O1346   1.983       .  S
O1338      C1345   1.267       .  A
O1339      C1353   1.262       .  A
O1340      C1345   1.262       .  A
O1341      C1344   1.273       .  A
O1342      C1354   1.269       .  A
O1343      C1356   1.270       .  A
C1344      O1349   1.270   1_556  A
C1344      C1605   1.439       .  S
C1345      C1625   1.439   1_554  S
O1347      C1350   1.263       .  A
O1348      C1350   1.271       .  A
C1350      C1552   1.432       .  S
O1351      C1356   1.263       .  A
O1352      C1354   1.272       .  A
C1353      O1355   1.268       .  A
C1353      C1548   1.436       .  S
C1354      C1553   1.438       .  S
C1356      C1629   1.438       .  S
Fe1357     O1373   2.051       .  S
Fe1357     O1363   2.081       .  S
Fe1357     O1370   2.082       .  S
Fe1357     O1362   2.052       .  S
Fe1357     O1368   1.982       .  S
Fe1358     O1361   2.047       .  S
Fe1358     O1365   2.083       .  S
Fe1358     O1369   2.043       .  S
Fe1358     O1374   2.080       .  S
Fe1358     O1368   1.980       .  S
Fe1359     O1377   2.080       .  S
Fe1359     O1364   2.064       .  S
Fe1359     O1371   2.066       .  S
Fe1359     O1360   2.079       .  S
Fe1359     O1368   1.983       .  S
O1360      C1367   1.267       .  A
O1361      C1375   1.262       .  A
O1362      C1367   1.262       .  A
O1363      C1366   1.273       .  A
O1364      C1376   1.269       .  A
O1365      C1378   1.270       .  A
C1366      O1371   1.270       .  A
C1366      C1616   1.439       .  S
C1367      C1597   1.439       .  S
O1369      C1372   1.263       .  A
O1370      C1372   1.271       .  A
C1372      C1541   1.432       .  S
O1373      C1378   1.263       .  A
O1374      C1376   1.272       .  A
C1375      O1377   1.268       .  A
C1375      C1540   1.436       .  S
C1376      C1533   1.438       .  S
C1378      C1604   1.438       .  S
Fe1379     O1395   2.051       .  S
Fe1379     O1385   2.081       .  S
Fe1379     O1392   2.082       .  S
Fe1379     O1384   2.052       .  S
Fe1379     O1390   1.982       .  S
Fe1380     O1383   2.047       .  S
Fe1380     O1387   2.082       .  S
Fe1380     O1391   2.043       .  S
Fe1380     O1396   2.080       .  S
Fe1380     O1390   1.980       .  S
Fe1381     O1399   2.080       .  S
Fe1381     O1386   2.064       .  S
Fe1381     O1393   2.066       .  S
Fe1381     O1382   2.079       .  S
Fe1381     O1390   1.983       .  S
O1382      C1389   1.267       .  A
O1383      C1397   1.262       .  A
O1384      C1389   1.262       .  A
O1385      C1388   1.273       .  A
O1386      C1398   1.269       .  A
O1387      C1400   1.270       .  A
C1388      O1393   1.270       .  A
C1388      C1524   1.439       .  S
C1389      C1529   1.439       .  S
O1391      C1394   1.263       .  A
O1392      C1394   1.271       .  A
C1394      C1544   1.432       .  S
O1395      C1400   1.263       .  A
O1396      C1398   1.272       .  A
C1397      O1399   1.268       .  A
C1397      C1537   1.436   1_655  S
C1398      C1596   1.438       .  S
C1400      C1528   1.438       .  S
Fe1401     O1417   2.051       .  S
Fe1401     O1407   2.081       .  S
Fe1401     O1414   2.081       .  S
Fe1401     O1406   2.052       .  S
Fe1401     O1412   1.982       .  S
Fe1402     O1405   2.047       .  S
Fe1402     O1409   2.082       .  S
Fe1402     O1413   2.043       .  S
Fe1402     O1418   2.080       .  S
Fe1402     O1412   1.980       .  S
Fe1403     O1421   2.080       .  S
Fe1403     O1408   2.064       .  S
Fe1403     O1415   2.066       .  S
Fe1403     O1404   2.080       .  S
Fe1403     O1412   1.983       .  S
O1404      C1411   1.267       .  A
O1405      C1419   1.262       .  A
O1406      C1411   1.262       .  A
O1407      C1410   1.273       .  A
O1408      C1420   1.269       .  A
O1409      C1422   1.270       .  A
C1410      O1415   1.270       .  A
C1410      C1501   1.438       .  S
C1411      C1517   1.439       .  S
O1413      C1416   1.263       .  A
O1414      C1416   1.271       .  A
C1416      C1509   1.432       .  S
O1417      C1422   1.263       .  A
O1418      C1420   1.272       .  A
C1419      O1421   1.268       .  A
C1419      C1508   1.436   1_655  S
C1420      C1572   1.438       .  S
C1422      C1513   1.438       .  S
Fe1423     O1439   2.051       .  S
Fe1423     O1429   2.081       .  S
Fe1423     O1436   2.081       .  S
Fe1423     O1428   2.052       .  S
Fe1423     O1434   1.982       .  S
Fe1424     O1427   2.047       .  S
Fe1424     O1431   2.082       .  S
Fe1424     O1435   2.043       .  S
Fe1424     O1440   2.080       .  S
Fe1424     O1434   1.980       .  S
Fe1425     O1443   2.080       .  S
Fe1425     O1430   2.064       .  S
Fe1425     O1437   2.066       .  S
Fe1425     O1426   2.079       .  S
Fe1425     O1434   1.983       .  S
O1426      C1433   1.267       .  A
O1427      C1441   1.262       .  A
O1428      C1433   1.262       .  A
O1429      C1432   1.273       .  A
O1430      C1442   1.269       .  A
O1431      C1444   1.270       .  A
C1432      O1437   1.270       .  A
C1432      C1565   1.438       .  S
C1433      C1585   1.439       .  S
O1435      C1438   1.263       .  A
O1436      C1438   1.271       .  A
C1438      C1512   1.432       .  S
O1439      C1444   1.263       .  A
O1440      C1442   1.272       .  A
C1441      O1443   1.268       .  A
C1441      C1505   1.436       .  S
C1442      C1497   1.438       .  S
C1444      C1589   1.438       .  S
Fe1445     O1461   2.051       .  S
Fe1445     O1451   2.081       .  S
Fe1445     O1458   2.082       .  S
Fe1445     O1450   2.052       .  S
Fe1445     O1456   1.982       .  S
Fe1446     O1449   2.047   1_565  S
Fe1446     O1453   2.082   1_565  S
Fe1446     O1457   2.043       .  S
Fe1446     O1462   2.080       .  S
Fe1446     O1456   1.980       .  S
Fe1447     O1465   2.080       .  S
Fe1447     O1452   2.064       .  S
Fe1447     O1459   2.066       .  S
Fe1447     O1448   2.079       .  S
Fe1447     O1456   1.983       .  S
O1448      C1455   1.267       .  A
O1450      C1455   1.262       .  A
O1451      C1454   1.273       .  A
O1452      C1464   1.269       .  A
O1453      C1466   1.270       .  A
C1454      O1459   1.270       .  A
C1454      C1536   1.439   1_565  S
C1455      C1525   1.439       .  S
O1457      C1460   1.263       .  A
O1458      C1460   1.271       .  A
C1460      C1496   1.432       .  S
O1461      C1466   1.263   1_565  A
O1462      C1464   1.272       .  A
C1463      C1489   1.436       .  S
C1464      C1504   1.438       .  S
C1466      C1532   1.438       .  S
Fe1467     O1483   2.051       .  S
Fe1467     O1473   2.081       .  S
Fe1467     O1480   2.082       .  S
Fe1467     O1472   2.052       .  S
Fe1467     O1478   1.982       .  S
Fe1468     O1471   2.047       .  S
Fe1468     O1475   2.083       .  S
Fe1468     O1479   2.043       .  S
Fe1468     O1484   2.080       .  S
Fe1468     O1478   1.980       .  S
Fe1469     O1487   2.080       .  S
Fe1469     O1474   2.064       .  S
Fe1469     O1481   2.066       .  S
Fe1469     O1470   2.080       .  S
Fe1469     O1478   1.983       .  S
O1470      C1477   1.267       .  A
O1471      C1485   1.262       .  A
O1472      C1477   1.262       .  A
O1473      C1476   1.273       .  A
O1474      C1486   1.269       .  A
O1475      C1488   1.270       .  A
C1476      O1481   1.270       .  A
C1476      C1500   1.439       .  S
C1477      C1516   1.439       .  S
O1479      C1482   1.263       .  A
O1480      C1482   1.271       .  A
C1482      C1493   1.432       .  S
O1483      C1488   1.263       .  A
O1484      C1486   1.272       .  A
C1485      O1487   1.268       .  A
C1485      C1492   1.436       .  S
C1486      C1521   1.438       .  S
C1488      C1520   1.438       .  S
C1489      C1490   1.207       .  T
C1490      C1491   1.414       .  S
C1491      C1492   1.207       .  T
C1493      C1494   1.205       .  T
C1494      C1495   1.411       .  S
C1495      C1496   1.205       .  T
C1497      C1498   1.207       .  T
C1498      C1499   1.415       .  S
C1499      C1500   1.207       .  T
C1501      C1502   1.207       .  T
C1502      C1503   1.415   1_655  S
C1506      C1507   1.414       .  S
C1509      C1510   1.205       .  T
C1510      C1511   1.410       .  S
C1511      C1512   1.205       .  T
C1513      C1514   1.208   1_655  T
C1514      C1515   1.416       .  S
C1517      C1518   1.208       .  T
C1518      C1519   1.416       .  S
C1519      C1520   1.208       .  T
C1522      C1523   1.415   1_455  S
C1523      C1524   1.207       .  T
C1526      C1527   1.416       .  S
C1527      C1528   1.208   1_455  T
C1529      C1530   1.208       .  T
C1530      C1531   1.416       .  S
C1533      C1534   1.207       .  T
C1535      C1536   1.207       .  T
C1538      C1539   1.414       .  S
C1539      C1540   1.207       .  T
C1541      C1542   1.205       .  T
C1542      C1543   1.411       .  S
C1543      C1544   1.205       .  T
C1546      C1547   1.414       .  S
C1547      C1548   1.207       .  T
C1549      C1550   1.205       .  T
C1550      C1551   1.411       .  S
C1551      C1552   1.205       .  T
C1553      C1554   1.207       .  T
C1554      C1555   1.415       .  S
C1558      C1559   1.416       .  S
C1559      C1560   1.208       .  T
C1561      C1562   1.208       .  T
C1562      C1563   1.416       .  S
C1565      C1566   1.207       .  T
C1566      C1567   1.415       .  S
C1569      C1570   1.207       .  T
C1570      C1571   1.415       .  S
C1571      C1572   1.207       .  T
C1574      C1575   1.415       .  S
C1575      C1576   1.207       .  T
C1577      C1578   1.207       .  T
C1578      C1579   1.414       .  S
C1579      C1580   1.207       .  T
C1581      C1582   1.205       .  T
C1582      C1583   1.411       .  S
C1583      C1584   1.205       .  T
C1585      C1586   1.208       .  T
C1586      C1587   1.416       .  S
C1587      C1588   1.208       .  T
C1589      C1590   1.208       .  T
C1590      C1591   1.416       .  S
C1593      C1594   1.207       .  T
C1595      C1596   1.207       .  T
C1597      C1598   1.208       .  T
C1598      C1599   1.416       .  S
C1601      C1602   1.208       .  T
C1602      C1603   1.416       .  S
C1603      C1604   1.208       .  T
C1605      C1606   1.207       .  T
C1606      C1607   1.415       .  S
C1607      C1608   1.207       .  T
C1609      C1610   1.207       .  T
C1610      C1611   1.415       .  S
C1613      C1614   1.207       .  T
C1614      C1615   1.415       .  S
C1615      C1616   1.207       .  T
C1617      C1618   1.207       .  T
C1618      C1619   1.414       .  S
C1619      C1620   1.207       .  T
C1621      C1622   1.205       .  T
C1622      C1623   1.410       .  S
C1623      C1624   1.205       .  T
C1625      C1626   1.208       .  T
C1626      C1627   1.416       .  S
C1629      C1630   1.208       .  T
C1630      C1631   1.416       .  S
C1631      C1632   1.208       .  T
