geometry optimzed in LAMMPS
_audit_creation_date              2020-12-01 
_audit_creation_method            'lammps2cif' 
_symmetry_space_group_name_H-M    'P1' 
_symmetry_Int_Tables_number       1 
_symmetry_cell_setting            triclinic 
loop_ 
_symmetry_equiv_pos_as_xyz 
  x,y,z 
_cell_length_a                    51.91631755 
_cell_length_b                    51.25863495145506 
_cell_length_c                    37.62305334586111 
_cell_angle_alpha                 90.03597461573823 
_cell_angle_beta                  90.10808427262621 
_cell_angle_gamma                 90.1753247073101 
loop_ 
_atom_site_label 
_atom_site_type_symbol 
_atom_site_fract_x 
_atom_site_fract_y 
_atom_site_fract_z 
_atom_site_charge 
O1          O  0.84877965  0.80203229  0.38855141    -0.83600
C2          C  0.83137620  0.81469682  0.24399664     0.95800
O3          O  0.81905533  0.80008089  0.26487129    -0.72700
O4          O  0.84765376  0.76628215  0.29851775    -0.76300
Al5        Al  0.82243953  0.79108659  0.31295744     1.49000
C6          C  0.86748070  0.76000414  0.31590140     0.91000
O7          O  0.89646857  0.81818095  0.31745346    -0.82500
O8          O  0.83904580  0.86505937  0.34708097    -0.76100
Al9        Al  0.87123109  0.81041098  0.35172292     1.90100
O10         O  0.87968311  0.85545581  0.30163502    -0.75100
O11         O  0.80619429  0.84728958  0.29564791    -0.75000
O12         O  0.84624390  0.83269905  0.25522480    -0.80600
O13         O  0.79382610  0.81262696  0.32475823    -0.78800
O14         O  0.84546601  0.81625073  0.32205823    -1.15000
O15         O  0.82248373  0.77605479  0.35988026    -0.74200
C16         C  0.83495387  0.78190984  0.38764788     0.96500
C17         C  0.89918178  0.84095027  0.30580797     0.92900
Al18       Al  0.84294898  0.84768816  0.30174182     1.55600
O19         O  0.87646849  0.77494575  0.33939444    -0.78800
C20         C  0.78861508  0.83138620  0.30403313     0.97100
C21         C  0.85576634  0.86299108  0.37159020     0.92000
O22         O  0.87188433  0.84460938  0.37146552    -0.84100
O23         O  0.65375827  0.79193764  0.10608992    -0.83600
C24         C  0.65897067  0.80461033  0.25283613     0.95800
O25         O  0.67542746  0.79313222  0.23413133    -0.72700
O26         O  0.64944651  0.75947103  0.19713722    -0.76300
Al27       Al  0.67519873  0.78422203  0.18575620     1.49000
C28         C  0.63030084  0.75288817  0.17851920     0.91000
O29         O  0.60070568  0.81063034  0.16878599    -0.82500
O30         O  0.65889163  0.85873430  0.15167122    -0.76100
Al31       Al  0.62903350  0.80209436  0.13965331     1.90100
O32         O  0.61631023  0.84683932  0.19031165    -0.75100
O33         O  0.68847525  0.83999730  0.20646450    -0.75000
O34         O  0.64487532  0.82257847  0.24011086    -0.80600
O35         O  0.70417244  0.80647630  0.17765557    -0.78800
O36         O  0.65233392  0.80864586  0.17308447    -1.15000
O37         O  0.67878234  0.76841789  0.13991371    -0.74200
C38         C  0.66770140  0.77219687  0.11054085     0.96500
C39         C  0.59732413  0.83265159  0.18238333     0.92900
Al40       Al  0.65229489  0.83956294  0.19520473     1.55600
O41         O  0.62246261  0.76707628  0.15342795    -0.78800
C42         C  0.70736731  0.82559801  0.19869285     0.97100
C43         C  0.64503438  0.85617333  0.12388243     0.92000
O44         O  0.63108476  0.83614802  0.11926415    -0.84100
O45         O  0.35076140  0.82622828  0.35466735    -0.83600
C46         C  0.34419103  0.79121386  0.99556003     0.95800
O47         O  0.34253105  0.81497552  0.48699123    -0.72700
O48         O  0.38120956  0.83451566  0.44954083    -0.76300
Al49       Al  0.34482092  0.83173529  0.44108760     1.49000
C50         C  0.39825221  0.83491222  0.42575155     0.91000
O51         O  0.39051196  0.77363111  0.40146229    -0.82500
O52         O  0.31535868  0.76879062  0.38129723    -0.76100
Al53       Al  0.36959831  0.80066365  0.37944329     1.90100
O54         O  0.35694633  0.74984693  0.41646148    -0.75100
O55         O  0.30049910  0.79087632  0.44388249    -0.75000
O56         O  0.34375132  0.77335052  0.47279144    -0.80600
O57         O  0.30772985  0.83280130  0.43863954    -0.78800
O58         O  0.34791706  0.80208881  0.41603033    -1.15000
O59         O  0.34696647  0.85431271  0.39879911    -0.74200
C60         C  0.34805313  0.84934848  0.36557433     0.96500
C61         C  0.38070026  0.75180373  0.41020229     0.92900
Al62       Al  0.33036856  0.77344442  0.42747954     1.55600
O63         O  0.39357761  0.82572921  0.39555674    -0.78800
C64         C  0.29378972  0.81412389  0.44966797     0.97100
C65         C  0.33092415  0.76316466  0.35660751     0.92000
O66         O  0.35175806  0.77540379  0.35377581    -0.84100
O67         O  0.13296918  0.83887393  0.12752799    -0.83600
C68         C  0.16533930  0.80766883  0.49685954     0.95800
O69         O  0.15163804  0.82625999  0.00880252    -0.72700
O70         O  0.12233031  0.85158521  0.05685012    -0.76300
Al71       Al  0.15809820  0.84234460  0.05440878     1.49000
C72         C  0.10248592  0.83794347  0.06188781     0.91000
O73         O  0.12312504  0.77062173  0.09046944    -0.82500
O74         O  0.17921980  0.76990459  0.11053099    -0.76100
Al75       Al  0.13038423  0.80509050  0.10594627     1.90100
O76         O  0.15267793  0.76167207  0.05064905    -0.75100
O77         O  0.20718677  0.80760206  0.07636716    -0.75000
O78         O  0.18080646  0.79543964  0.01639912    -0.80600
O79         O  0.19475992  0.84129322  0.04543142    -0.78800
O80         O  0.15570377  0.81105188  0.07550424    -1.15000
O81         O  0.16382836  0.86025015  0.09904011    -0.74200
C82         C  0.14829997  0.85810598  0.12509419     0.96500
C83         C  0.13222029  0.75588204  0.06687031     0.92900
Al84       Al  0.17830879  0.78603288  0.06472536     1.55600
O85         O  0.10439656  0.81525941  0.07382059    -0.78800
C86         C  0.21245414  0.82585831  0.05477997     0.97100
C87         C  0.16640281  0.77334573  0.13856269     0.92000
O88         O  0.15242388  0.79317856  0.14199154    -0.84100
O89         O  0.34766317  0.70424330  0.10917665    -0.83600
C90         C  0.33145376  0.68803470  0.25346174     0.95800
O91         O  0.31877224  0.70287545  0.23334816    -0.72700
O92         O  0.34700344  0.73746131  0.20039161    -0.76300
Al93       Al  0.32169059  0.71281120  0.18545217     1.49000
C94         C  0.36685317  0.74402411  0.18328687     0.91000
O95         O  0.39576028  0.68500791  0.17877927    -0.82500
O96         O  0.33743206  0.63928946  0.14838288    -0.76100
Al97       Al  0.37014511  0.69422602  0.14540115     1.90100
O98         O  0.37835522  0.64776299  0.19368543    -0.75100
O99         O  0.30502877  0.65636518  0.20096323    -0.75000
O100        O  0.34584333  0.67008669  0.24127940    -0.80600
O101        O  0.29298945  0.69152216  0.17296996    -0.78800
O102        O  0.34451099  0.68780871  0.17504440    -1.15000
O103        O  0.32124098  0.72889954  0.13939477    -0.74200
C104        C  0.33375787  0.72418691  0.11142791     0.96500
C105        C  0.39808229  0.66207454  0.19000861     0.92900
Al106      Al  0.34181038  0.65592340  0.19425569     1.55600
O107        O  0.37603445  0.72928430  0.15977470    -0.78800
C108        C  0.28765914  0.67263180  0.19335811     0.97100
C109        C  0.35394582  0.64179053  0.12370645     0.92000
O110        O  0.36979841  0.66054384  0.12379923    -0.84100
O111        O  0.15668771  0.71303511  0.39330954    -0.83600
C112        C  0.16035294  0.69912740  0.24708104     0.95800
O113        O  0.17687299  0.71109074  0.26532181    -0.72700
O114        O  0.15127095  0.74540279  0.30189695    -0.76300
Al115      Al  0.17703580  0.72065213  0.31351819     1.49000
C116        C  0.13263977  0.75236839  0.32111333     0.91000
O117        O  0.10259982  0.69468898  0.33191026    -0.82500
O118        O  0.16031363  0.64645877  0.35008288    -0.76100
Al119      Al  0.13124606  0.70326529  0.36058359     1.90100
O120        O  0.11790116  0.65825432  0.31089123    -0.75100
O121        O  0.18984836  0.66432450  0.29470798    -0.75000
O122        O  0.14644207  0.68120821  0.26043238    -0.80600
O123        O  0.20595433  0.69851675  0.32184751    -0.78800
O124        O  0.15415307  0.69631085  0.32698976    -1.15000
O125        O  0.18101396  0.73699837  0.35906866    -0.74200
C126        C  0.17024231  0.73306238  0.38859226     0.96500
C127        C  0.09903835  0.67252480  0.31863949     0.92900
Al128      Al  0.15382031  0.66504938  0.30589257     1.55600
O129        O  0.12507940  0.73836549  0.34657640    -0.78800
C130        C  0.20883276  0.67897981  0.30148210     0.97100
C131        C  0.14640322  0.64936547  0.37767841     0.92000
O132        O  0.13265480  0.66947018  0.38162321    -0.84100
O133        O  0.91732150  0.38772942  0.00919731    -0.83600
C134        C  0.94668471  0.41646441  0.37551213     0.95800
O135        O  0.92864822  0.40278595  0.38875270    -0.72700
O136        O  0.90470318  0.37417716  0.43894012    -0.76300
Al137      Al  0.91332236  0.41042429  0.43422076     1.49000
C138        C  0.91788708  0.35429920  0.44624321     0.91000
O139        O  0.98481965  0.37751749  0.47262053    -0.82500
O140        O  0.98512169  0.43497285  0.48757662    -0.76100
Al141      Al  0.95055343  0.38494810  0.48753052     1.90100
O142        O  0.99314077  0.40555122  0.43009617    -0.75100
O143        O  0.94800341  0.46172638  0.45122441    -0.75000
O144        O  0.95945543  0.43239314  0.39393288    -0.80600
O145        O  0.91401769  0.44712603  0.42317734    -0.78800
O146        O  0.94437255  0.40919073  0.45499162    -1.15000
O147        O  0.89573825  0.41735859  0.47860643    -0.74200
C148        C  0.89797007  0.40247952  0.50555508     0.96500
C149        C  0.99938330  0.38594564  0.44840983     0.92900
Al150      Al  0.96901509  0.43191776  0.44212528     1.55600
O151        O  0.94035999  0.35688396  0.45805538    -0.78800
C152        C  0.92915259  0.46573793  0.43046311     0.97100
C153        C  0.98178891  0.42301978  0.01642736     0.92000
O154        O  0.96200146  0.40929902  0.02121227    -0.84100
O155        O  0.91658517  0.62508130  0.24436069    -0.83600
C156        C  0.94461964  0.59816135  0.37919521     0.95800
O157        O  0.92626500  0.61112574  0.36544303    -0.72700
O158        O  0.90193972  0.63846979  0.31365126    -0.76300
Al159      Al  0.91194795  0.60260487  0.31930056     1.49000
C160        C  0.91481313  0.65880732  0.30741096     0.91000
O161        O  0.98287120  0.63840927  0.28330462    -0.82500
O162        O  0.98493767  0.58037002  0.26763826    -0.76100
Al163      Al  0.94919464  0.62955864  0.26729008     1.90100
O164        O  0.99132284  0.61009444  0.32538977    -0.75100
O165        O  0.94827627  0.55257911  0.30410074    -0.75000
O166        O  0.95836966  0.58303255  0.36100304    -0.80600
O167        O  0.91361663  0.56607837  0.33117159    -0.78800
O168        O  0.94327148  0.60498157  0.29949521    -1.15000
O169        O  0.89568529  0.59446918  0.27429207    -0.74200
C170        C  0.89819495  0.60887460  0.24690802     0.96500
C171        C  0.99730748  0.62994724  0.30758369     0.92900
Al172      Al  0.96830241  0.58318554  0.31304230     1.55600
O173        O  0.93758220  0.65700543  0.29668016    -0.78800
C174        C  0.92942904  0.54805879  0.32459303     0.97100
C175        C  0.98172408  0.59220011  0.23856190     0.92000
O176        O  0.96215251  0.60611676  0.23367262    -0.84100
O177        O  0.58457834  0.61957136  0.25720376    -0.83600
C178        C  0.55454408  0.59094316  0.12401993     0.95800
O179        O  0.57313384  0.60397042  0.13723949    -0.72700
O180        O  0.59717262  0.63206498  0.18814244    -0.76300
Al181      Al  0.58803029  0.59603554  0.18307011     1.49000
C182        C  0.58373873  0.65204367  0.19379923     0.91000
O183        O  0.51648449  0.62991038  0.22199650    -0.82500
O184        O  0.51687569  0.57222890  0.23652058    -0.76100
Al185      Al  0.55113857  0.62238507  0.23577333     1.90100
O186        O  0.50773073  0.60201121  0.17959478    -0.75100
O187        O  0.55262400  0.54553669  0.19885950    -0.75000
O188        O  0.54093404  0.57583421  0.14252135    -0.80600
O189        O  0.58686690  0.55956576  0.17135392    -0.78800
O190        O  0.55689569  0.59787719  0.20346714    -1.15000
O191        O  0.60502745  0.58850724  0.22788817    -0.74200
C192        C  0.60306111  0.60358247  0.25470301     0.96500
C193        C  0.50138105  0.62123153  0.19851310     0.92900
Al194      Al  0.53195765  0.57558964  0.19071981     1.55600
O195        O  0.56114956  0.64985776  0.20523707    -0.78800
C196        C  0.57111945  0.54140324  0.17775336     0.97100
C197        C  0.52068340  0.58399945  0.26546793     0.92000
O198        O  0.54006942  0.59839609  0.26983079    -0.84100
O199        O  0.58019461  0.38481887  0.48985114    -0.83600
C200        C  0.55160790  0.41139056  0.12518792     0.95800
O201        O  0.56968777  0.39810244  0.11152637    -0.72700
O202        O  0.59372385  0.37029777  0.06093150    -0.76300
Al203      Al  0.58474475  0.40632621  0.06579471     1.49000
C204        C  0.58086731  0.35019868  0.05328377     0.91000
O205        O  0.51380887  0.37218795  0.02819411    -0.82500
O206        O  0.51086462  0.42881881  0.01490541    -0.76100
Al207      Al  0.54750994  0.38079861  0.01226955     1.90100
O208        O  0.50597960  0.39886295  0.07260846    -0.75100
O209        O  0.54857409  0.45688843  0.04955730    -0.75000
O210        O  0.53917740  0.42771255  0.10726026    -0.80600
O211        O  0.58343947  0.44301639  0.07642870    -0.78800
O212        O  0.55362129  0.40458901  0.04545787    -1.15000
O213        O  0.60216398  0.41372847  0.02137383    -0.74200
C214        C  0.59953273  0.39964841  0.99369039     0.96500
C215        C  0.49989034  0.37939780  0.05378033     0.92900
Al216      Al  0.52856792  0.42640535  0.05953590     1.55600
O217        O  0.55870342  0.35229381  0.04027128    -0.78800
C218        C  0.56794802  0.46130492  0.06937272     0.97100
C219        C  0.51457650  0.41776208  0.48543092     0.92000
O220        O  0.53513922  0.40556693  0.47988984    -0.84100
O221        O  0.85126762  0.21732531  0.35966031    -0.83600
C222        C  0.83937438  0.19848690  0.00385540     0.95800
O223        O  0.82401483  0.21165449  0.48527431    -0.72700
O224        O  0.85104835  0.24652211  0.45164164    -0.76300
Al225      Al  0.82549617  0.22214147  0.43747257     1.49000
C226        C  0.87144410  0.25274610  0.43564866     0.91000
O227        O  0.89986076  0.19298052  0.42560345    -0.82500
O228        O  0.84026877  0.14885381  0.39842993    -0.76100
Al229      Al  0.87346445  0.20431705  0.39462924     1.90100
O230        O  0.88183160  0.15639463  0.44091797    -0.75100
O231        O  0.80957520  0.16604477  0.45397416    -0.75000
O232        O  0.85274714  0.18012059  0.49069529    -0.80600
O233        O  0.79609026  0.20097505  0.42665521    -0.78800
O234        O  0.84818309  0.19742712  0.42495861    -1.15000
O235        O  0.82372562  0.23908103  0.39209847    -0.74200
C236        C  0.83660793  0.23655637  0.36389149     0.96500
C237        C  0.90182266  0.16982862  0.43590770     0.92900
Al238      Al  0.84608862  0.16549380  0.44422691     1.55600
O239        O  0.88077278  0.23832900  0.41187871    -0.78800
C240        C  0.79155643  0.18172875  0.44692757     0.97100
C241        C  0.85588366  0.15172492  0.37252004     0.92000
O242        O  0.87091939  0.17123367  0.37103231    -0.84100
O243        O  0.65121546  0.21233316  0.14214651    -0.83600
C244        C  0.66075639  0.19559274  0.49704730     0.95800
O245        O  0.67534942  0.20985919  0.01545696    -0.72700
O246        O  0.64791667  0.24335448  0.05061953    -0.76300
Al247      Al  0.67452765  0.21987609  0.06342915     1.49000
C248        C  0.62819261  0.24931605  0.06826375     0.91000
O249        O  0.60140528  0.18903045  0.07681146    -0.82500
O250        O  0.66232346  0.14586148  0.10172357    -0.76100
Al251      Al  0.62811236  0.20010731  0.10771957     1.90100
O252        O  0.61975380  0.15281590  0.06032458    -0.75100
O253        O  0.69182147  0.16427805  0.04607659    -0.75000
O254        O  0.64804518  0.17683200  0.01044058    -0.80600
O255        O  0.70479196  0.19979204  0.07277776    -0.78800
O256        O  0.65286298  0.19428561  0.07623889    -1.15000
O257        O  0.67662669  0.23634470  0.10916926    -0.74200
C258        C  0.66473874  0.23248037  0.13794685     0.96500
C259        C  0.59969844  0.16617979  0.06503249     0.92900
Al260      Al  0.65545351  0.16254966  0.05653335     1.55600
O261        O  0.62004306  0.23461422  0.09259286    -0.78800
C262        C  0.70950756  0.18060758  0.05249957     0.97100
C263        C  0.64680008  0.14780937  0.12776119     0.92000
O264        O  0.63116503  0.16666309  0.12986209    -0.84100
O265        O  0.08368636  0.12082455  0.00514666    -0.83600
C266        C  0.05425211  0.09199028  0.37183750     0.95800
O267        O  0.07224014  0.10571795  0.38513967    -0.72700
O268        O  0.09578070  0.13431002  0.43528565    -0.76300
Al269      Al  0.08761002  0.09811350  0.43049162     1.49000
C270        C  0.08211451  0.15393833  0.44195251     0.91000
O271        O  0.01605188  0.13026628  0.46929398    -0.82500
O272        O  0.01605742  0.07293243  0.48414474    -0.76100
Al273      Al  0.05033874  0.12311845  0.48388454     1.90100
O274        O  0.00768345  0.10233972  0.42657161    -0.75100
O275        O  0.05341995  0.04670298  0.44717231    -0.75000
O276        O  0.04138642  0.07613657  0.39019626    -0.80600
O277        O  0.08724702  0.06163096  0.41924019    -0.78800
O278        O  0.05656914  0.09903491  0.45126560    -1.15000
O279        O  0.10527897  0.09114797  0.47469643    -0.74200
C280        C  0.10302660  0.10599209  0.50163218     0.96500
C281        C  0.00158844  0.12197228  0.44486273     0.92900
Al282      Al  0.03202766  0.07621376  0.43841224     1.55600
O283        O  0.05984094  0.15112818  0.45415430    -0.78800
C284        C  0.07209311  0.04302447  0.42608755     0.97100
C285        C  0.01959447  0.08500007  0.01300324     0.92000
O286        O  0.03947758  0.09866207  0.01750748    -0.84100
O287        O  0.08415456  0.88558060  0.23918411    -0.83600
C288        C  0.05568326  0.91306962  0.37303909     0.95800
O289        O  0.07428379  0.90048283  0.35940730    -0.72700
O290        O  0.09859587  0.87322001  0.30837574    -0.76300
Al291      Al  0.08853240  0.90892281  0.31339651     1.49000
C292        C  0.08556560  0.85282175  0.30334920     0.91000
O293        O  0.01741932  0.87289197  0.27708068    -0.82500
O294        O  0.01588434  0.93069363  0.26197935    -0.76100
Al295      Al  0.05136360  0.88146553  0.26176271     1.90100
O296        O  0.00880818  0.90096933  0.31933110    -0.75100
O297        O  0.05198144  0.95855280  0.29760053    -0.75000
O298        O  0.04213035  0.92850574  0.35502394    -0.80600
O299        O  0.08677411  0.94533446  0.32464258    -0.78800
O300        O  0.05718906  0.90625633  0.29368244    -1.15000
O301        O  0.10469469  0.91686031  0.26840344    -0.74200
C302        C  0.10248360  0.90189143  0.24153450     0.96500
C303        C  0.00257452  0.88144536  0.30080087     0.92900
Al304      Al  0.03211356  0.92801154  0.30706710     1.55600
O305        O  0.06288822  0.85429323  0.29192398    -0.78800
C306        C  0.07103055  0.96329167  0.31764041     0.97100
C307        C  0.01917223  0.91896978  0.23295795     0.92000
O308        O  0.03857928  0.90482801  0.22791278    -0.84100
O309        O  0.14878432  0.29195094  0.35720698    -0.83600
C310        C  0.16243368  0.30995171  0.00265659     0.95800
O311        O  0.17530748  0.29466032  0.48351211    -0.72700
O312        O  0.14638994  0.26189028  0.44975670    -0.76300
Al313      Al  0.17322319  0.28445682  0.43568962     1.49000
C314        C  0.12663716  0.25592460  0.43211035     0.91000
O315        O  0.10097443  0.31628355  0.42424625    -0.82500
O316        O  0.16207719  0.35838270  0.39705791    -0.76100
Al317      Al  0.12668463  0.30477942  0.39252716     1.90100
O318        O  0.12008118  0.35244168  0.43997928    -0.75100
O319        O  0.19237292  0.33976994  0.45150391    -0.75000
O320        O  0.14946090  0.32857394  0.48953192    -0.80600
O321        O  0.20351912  0.30377415  0.42470847    -0.78800
O322        O  0.15204979  0.31036471  0.42333278    -1.15000
O323        O  0.17411997  0.26780715  0.39007580    -0.74200
C324        C  0.16260701  0.27201154  0.36106256     0.96500
C325        C  0.09973228  0.33928476  0.43553245     0.92900
Al326      Al  0.15581798  0.34218479  0.44263077     1.55600
O327        O  0.11837016  0.27054021  0.40784035    -0.78800
C328        C  0.20924631  0.32275701  0.44479413     0.97100
C329        C  0.14601005  0.35655577  0.37159772     0.92000
O330        O  0.12987102  0.33804017  0.37022615    -0.84100
O331        O  0.34848665  0.28446301  0.13922217    -0.83600
C332        C  0.33863116  0.30006127  0.49400939     0.95800
O333        O  0.32302938  0.28749701  0.01288640    -0.72700
O334        O  0.35042711  0.25375376  0.04759790    -0.76300
Al335      Al  0.32441612  0.27772426  0.06079370     1.49000
C336        C  0.37047994  0.24769824  0.06457694     0.91000
O337        O  0.39865642  0.30732766  0.07459812    -0.82500
O338        O  0.33889841  0.35181237  0.09764830    -0.76100
Al339      Al  0.37156461  0.29654360  0.10483126     1.90100
O340        O  0.38088939  0.34336798  0.05667235    -0.75100
O341        O  0.30906452  0.33335409  0.04268223    -0.75000
O342        O  0.35227362  0.31856453  0.00674821    -0.80600
O343        O  0.29483730  0.29877724  0.07053192    -0.78800
O344        O  0.34692903  0.30277911  0.07323462    -1.15000
O345        O  0.32229712  0.26125464  0.10634236    -0.74200
C346        C  0.33430686  0.26479378  0.13510426     0.96500
C347        C  0.40073246  0.33017990  0.06312225     0.92900
Al348      Al  0.34526573  0.33422217  0.05272225     1.55600
O349        O  0.37901242  0.26215971  0.08902601    -0.78800
C350        C  0.29073170  0.31812078  0.05023283     0.97100
C351        C  0.35354684  0.34913566  0.12466922     0.92000
O352        O  0.36870281  0.32990532  0.12721804    -0.84100
O353        O  0.03712142  0.60066305  0.48165518    -0.83600
C354        C  0.05335912  0.59528984  0.12780117     0.95800
O355        O  0.04009829  0.57959747  0.10979218    -0.72700
O356        O  0.00802726  0.60882969  0.07473731    -0.76300
Al357      Al  0.02974613  0.58063422  0.06196827     1.49000
C358        C  0.00159348  0.62750497  0.05482368     0.91000
O359        O  0.06084458  0.65378169  0.04233759    -0.82500
O360        O  0.10333038  0.59170511  0.02313835    -0.76100
Al361      Al  0.04947784  0.62546637  0.01407984     1.90100
O362        O  0.09581919  0.63551326  0.06250224    -0.75100
O363        O  0.08427836  0.56306246  0.07894213    -0.75000
O364        O  0.07169401  0.60823113  0.11391001    -0.80600
O365        O  0.04895179  0.54964014  0.05260912    -0.78800
O366        O  0.05519928  0.60178467  0.04759560    -1.15000
O367        O  0.01230130  0.57811840  0.01706919    -0.74200
C368        C  0.01637522  0.58868297  0.48732318     0.96500
C369        C  0.08324692  0.65570914  0.05474346     0.92900
Al370      Al  0.08629874  0.59964607  0.06784260     1.55600
O371        O  0.01544550  0.63415500  0.02886729    -0.78800
C372        C  0.06826047  0.54504197  0.07240073     0.97100
C373        C  0.10098703  0.60586840  0.99548782     0.92000
O374        O  0.08224555  0.62136869  0.49209610    -0.84100
O375        O  0.03695130  0.40431730  0.26863034    -0.83600
C376        C  0.05405053  0.41568770  0.12386581     0.95800
O377        O  0.04018361  0.43039841  0.14256493    -0.72700
O378        O  0.00658194  0.40334400  0.17762390    -0.76300
Al379      Al  0.03051860  0.42955327  0.19060226     1.49000
C380        C  0.00060486  0.38295287  0.19434014     0.91000
O381        O  0.06048188  0.35489772  0.20256775    -0.82500
O382        O  0.10294900  0.41654884  0.22864383    -0.76100
Al383      Al  0.04928580  0.38163743  0.23371962     1.90100
O384        O  0.09631743  0.37383407  0.18715058    -0.75100
O385        O  0.08551500  0.44631814  0.17301662    -0.75000
O386        O  0.07242580  0.40249095  0.13705775    -0.80600
O387        O  0.05106483  0.45961826  0.20049349    -0.78800
O388        O  0.05533698  0.40708936  0.20289404    -1.15000
O389        O  0.01469085  0.43173960  0.23631469    -0.74200
C390        C  0.01797076  0.41921527  0.26479992     0.96500
C391        C  0.08330777  0.35338915  0.19184221     0.92900
Al392      Al  0.08671166  0.40972331  0.18332799     1.55600
O393        O  0.01533951  0.37375286  0.21778612    -0.78800
C394        C  0.06978284  0.46428318  0.17990337     0.97100
C395        C  0.10060846  0.40099163  0.25483105     0.92000
O396        O  0.08211542  0.38484353  0.25648741    -0.84100
O397        O  0.96374787  0.90587905  0.47766023    -0.83600
C398        C  0.94842640  0.91497406  0.12385042     0.95800
O399        O  0.96264062  0.92938397  0.10520861    -0.72700
O400        O  0.99519784  0.90138589  0.06963557    -0.76300
Al401      Al  0.97214510  0.92844825  0.05712750     1.49000
C402        C  0.00157989  0.88228277  0.05052599     0.91000
O403        O  0.94345842  0.85446239  0.04284388    -0.82500
O404        O  0.89896116  0.91504310  0.01989037    -0.76100
Al405      Al  0.95279240  0.88178874  0.01197152     1.90100
O406        O  0.90787304  0.87194504  0.06213847    -0.75100
O407        O  0.91696067  0.94538769  0.07416852    -0.75000
O408        O  0.93018496  0.90176090  0.11052783    -0.80600
O409        O  0.95213613  0.95891694  0.04802513    -0.78800
O410        O  0.94702031  0.90642866  0.04429694    -1.15000
O411        O  0.98811454  0.93069735  0.01126228    -0.74200
C412        C  0.98394398  0.91916038  0.48207913     0.96500
C413        C  0.92228885  0.85229716  0.05854383     0.92900
Al414      Al  0.91593652  0.90849177  0.06457795     1.55600
O415        O  0.98721167  0.87453165  0.02569135    -0.78800
C416        C  0.93295456  0.96342127  0.06792208     0.97100
C417        C  0.90099921  0.90003813  0.99321041     0.92000
O418        O  0.91934894  0.88392019  0.49085438    -0.84100
O419        O  0.96337445  0.10283509  0.26647655    -0.83600
C420        C  0.94714313  0.09291113  0.12116968     0.95800
O421        O  0.96060800  0.07786526  0.13987000    -0.72700
O422        O  0.99404128  0.10509688  0.17537277    -0.76300
Al423      Al  0.97014484  0.07861943  0.18791908     1.49000
C424        C  0.00020271  0.12521150  0.19271179     0.91000
O425        O  0.94097326  0.15328744  0.20134790    -0.82500
O426        O  0.89734728  0.09225742  0.22616807    -0.76100
Al427      Al  0.95162380  0.12615257  0.23202186     1.90100
O428        O  0.90505869  0.13492924  0.18467135    -0.75100
O429        O  0.91499318  0.06219012  0.17003583    -0.75000
O430        O  0.92872846  0.10611433  0.13430457    -0.80600
O431        O  0.94951456  0.04846917  0.19717468    -0.78800
O432        O  0.94538431  0.10107431  0.20053276    -1.15000
O433        O  0.98595411  0.07612666  0.23357543    -0.74200
C434        C  0.98256011  0.08829672  0.26229632     0.96500
C435        C  0.91826168  0.15516377  0.19022532     0.92900
Al436      Al  0.91407286  0.09889299  0.18064582     1.55600
O437        O  0.98571895  0.13384982  0.21676834    -0.78800
C438        C  0.93072735  0.04406483  0.17643396     0.97100
C439        C  0.90006880  0.10752561  0.25277222     0.92000
O440        O  0.91877876  0.12336551  0.25441986    -0.84100
O441        O  0.85178617  0.67564407  0.14375109    -0.83600
C442        C  0.84614675  0.71525657  0.50524256     0.95800
O443        O  0.84550001  0.69105479  0.01197489    -0.72700
O444        O  0.88418190  0.67176605  0.04980918    -0.76300
Al445      Al  0.84755482  0.67255923  0.05686071     1.49000
C446        C  0.90072079  0.67117931  0.07433808     0.91000
O447        O  0.88999232  0.73092700  0.10104364    -0.82500
O448        O  0.81458176  0.73153244  0.11965701    -0.76100
Al449      Al  0.86996091  0.70257425  0.12120480     1.90100
O450        O  0.85576499  0.75400532  0.08717786    -0.75100
O451        O  0.80146944  0.71129432  0.05509430    -0.75000
O452        O  0.84423879  0.73207200  0.02919724    -0.80600
O453        O  0.81040598  0.66959058  0.05739279    -0.78800
O454        O  0.84889907  0.70136744  0.08387717    -1.15000
O455        O  0.84998080  0.64857399  0.09815182    -0.74200
C456        C  0.85042108  0.65272033  0.13170517     0.96500
C457        C  0.87962843  0.75255360  0.09293684     0.92900
Al458      Al  0.83030116  0.72952595  0.07379826     1.55600
O459        O  0.89509156  0.67920199  0.10474976    -0.78800
C460        C  0.79582669  0.68802220  0.04733449     0.97100
C461        C  0.82975065  0.73754691  0.14474160     0.92000
O462        O  0.85090785  0.72607631  0.14781772    -0.84100
O463        O  0.63241065  0.66446939  0.37188710    -0.83600
C464        C  0.66433159  0.69637014  0.00284298     0.95800
O465        O  0.65093577  0.67740119  0.49102791    -0.72700
O466        O  0.62197775  0.65117036  0.44265550    -0.76300
Al467      Al  0.65757569  0.66121500  0.44528329     1.49000
C468        C  0.60187043  0.66420329  0.43717680     0.91000
O469        O  0.62150752  0.73237855  0.40946566    -0.82500
O470        O  0.67803458  0.73374902  0.38923479    -0.76100
Al471      Al  0.62931014  0.69799505  0.39375872     1.90100
O472        O  0.65127073  0.74190705  0.44889482    -0.75100
O473        O  0.70657965  0.69675048  0.42381538    -0.75000
O474        O  0.67992683  0.70851849  0.48330424    -0.80600
O475        O  0.69420796  0.66283203  0.45443871    -0.78800
O476        O  0.65482886  0.69243638  0.42419770    -1.15000
O477        O  0.66346059  0.64342180  0.40035132    -0.74200
C478        C  0.64804993  0.64559137  0.37401944     0.96500
C479        C  0.63058926  0.74739955  0.43290185     0.92900
Al480      Al  0.67724671  0.71781225  0.43504429     1.55600
O481        O  0.60349452  0.68702092  0.42554018    -0.78800
C482        C  0.71195917  0.67822526  0.44494369     0.97100
C483        C  0.66516100  0.73017897  0.36121485     0.92000
O484        O  0.65101184  0.71040975  0.35783878    -0.84100
O485        O  0.41437434  0.87981935  0.25598574    -0.83600
C486        C  0.44323475  0.90791637  0.12136713     0.95800
O487        O  0.42504512  0.89450404  0.13475720    -0.72700
O488        O  0.40058427  0.86630589  0.18550091    -0.76300
Al489      Al  0.41052916  0.90241681  0.18087787     1.49000
C490        C  0.41326462  0.84602563  0.19265529     0.91000
O491        O  0.48121113  0.86683201  0.21857674    -0.82500
O492        O  0.48433473  0.92323371  0.23321804    -0.76100
Al493      Al  0.44721898  0.87557724  0.23394048     1.90100
O494        O  0.48906471  0.89386342  0.17468033    -0.75100
O495        O  0.44767968  0.95193926  0.19832268    -0.75000
O496        O  0.45691670  0.92284028  0.14008932    -0.80600
O497        O  0.41276495  0.93919504  0.17052521    -0.78800
O498        O  0.44164508  0.89985972  0.20128786    -1.15000
O499        O  0.39365628  0.91002107  0.22534471    -0.74200
C500        C  0.39574653  0.89552615  0.25261214     0.96500
C501        C  0.49536607  0.87456290  0.19344731     0.92900
Al502      Al  0.46708665  0.92134804  0.18802479     1.55600
O503        O  0.43574333  0.84793444  0.20471515    -0.78800
C504        C  0.42886314  0.95697301  0.17791522     0.97100
C505        C  0.48023481  0.91229001  0.26269094     0.92000
O506        O  0.45983432  0.89952268  0.26752117    -0.84100
O507        O  0.41869271  0.11211727  0.48594774    -0.83600
C508        C  0.44634283  0.08850221  0.12221218     0.95800
O509        O  0.42808678  0.10102043  0.10756948    -0.72700
O510        O  0.40456728  0.12726652  0.05465783    -0.76300
Al511      Al  0.41405224  0.09152854  0.06175381     1.49000
C512        C  0.41772106  0.14729643  0.04774754     0.91000
O513        O  0.48544013  0.12579648  0.02341975    -0.82500
O514        O  0.48730697  0.06787401  0.01229296    -0.76100
Al515      Al  0.45144219  0.11665400  0.00836247     1.90100
O516        O  0.49358335  0.09963217  0.06806895    -0.75100
O517        O  0.45071836  0.04109852  0.04975774    -0.75000
O518        O  0.46042980  0.07313241  0.10495598    -0.80600
O519        O  0.41559738  0.05541223  0.07493744    -0.78800
O520        O  0.44545027  0.09329344  0.04214752    -1.15000
O521        O  0.39762759  0.08244630  0.01716920    -0.74200
C522        C  0.40001145  0.09638811  0.98936870     0.96500
C523        C  0.49975635  0.11866507  0.04865997     0.92900
Al524      Al  0.47056614  0.07203568  0.05718005     1.55600
O525        O  0.44024989  0.14518082  0.03612852    -0.78800
C526        C  0.43145933  0.03720413  0.06974809     0.97100
C527        C  0.48376783  0.07867302  0.48260268     0.92000
O528        O  0.46366380  0.09152547  0.47662391    -0.84100
O529        O  0.36724551  0.16044168  0.37828618    -0.83600
C530        C  0.33751778  0.19203343  0.24606735     0.95800
O531        O  0.35136064  0.17384545  0.25865940    -0.72700
O532        O  0.38035000  0.14986269  0.30781402    -0.76300
Al533      Al  0.34434458  0.15726558  0.30361232     1.49000
C534        C  0.39955822  0.16404576  0.31486662     0.91000
O535        O  0.37497688  0.22991833  0.34496215    -0.82500
O536        O  0.31896729  0.22819129  0.35971956    -0.76100
Al537      Al  0.36876608  0.19466753  0.35825242     1.90100
O538        O  0.34743669  0.23814773  0.30213793    -0.75100
O539        O  0.29363810  0.19037703  0.32288498    -0.75000
O540        O  0.32153661  0.20411222  0.26496744    -0.80600
O541        O  0.30793571  0.15710713  0.29265275    -0.78800
O542        O  0.34500288  0.18833376  0.32548621    -1.15000
O543        O  0.33811376  0.13840809  0.34741919    -0.74200
C544        C  0.35290886  0.14061928  0.37432007     0.96500
C545        C  0.36661414  0.24466441  0.32079481     0.92900
Al546      Al  0.32206526  0.21283765  0.31369164     1.55600
O547        O  0.39649319  0.18631176  0.32796103    -0.78800
C548        C  0.28966080  0.17223279  0.30068201     0.97100
C549        C  0.33069365  0.22431357  0.38856409     0.92000
O550        O  0.34442033  0.20436498  0.39252234    -0.84100
O551        O  0.13465574  0.17228571  0.11319531    -0.83600
C552        C  0.16125796  0.20015074  0.24834289     0.95800
O553        O  0.14779933  0.18197619  0.23456276    -0.72700
O554        O  0.12006297  0.15792897  0.18342532    -0.76300
Al555      Al  0.15566508  0.16650612  0.18890504     1.49000
C556        C  0.10061033  0.17156654  0.17673847     0.91000
O557        O  0.12379748  0.23909776  0.15292090    -0.82500
O558        O  0.18184456  0.23939397  0.13794737    -0.76100
Al559      Al  0.13133841  0.20521475  0.13629946     1.90100
O560        O  0.15222848  0.24746962  0.19469198    -0.75100
O561        O  0.20715878  0.20080258  0.17377542    -0.75000
O562        O  0.17790123  0.21237159  0.23069733    -0.80600
O563        O  0.19152923  0.16636521  0.20045512    -0.78800
O564        O  0.15513031  0.19819987  0.16881840    -1.15000
O565        O  0.16274406  0.14918210  0.14430410    -0.74200
C566        C  0.14905615  0.15253268  0.11654488     0.96500
C567        C  0.13232520  0.25357071  0.17727582     0.92900
Al568      Al  0.17797929  0.22259056  0.18272893     1.55600
O569        O  0.10325311  0.19421092  0.16477870    -0.78800
C570        C  0.21040352  0.18097299  0.19342711     0.97100
C571        C  0.16959152  0.23734814  0.10921539     0.92000
O572        O  0.15526219  0.21800175  0.10339040    -0.84100
O573        O  0.53583421  0.90376889  0.01967697    -0.83600
C574        C  0.55202428  0.90777376  0.37375403     0.95800
O575        O  0.53936440  0.92408322  0.39139316    -0.72700
O576        O  0.50665854  0.89622302  0.42713294    -0.76300
Al577      Al  0.52922540  0.92387381  0.43929120     1.49000
C578        C  0.49990827  0.87746366  0.44669759     0.91000
O579        O  0.55935286  0.84995748  0.45977755    -0.82500
O580        O  0.60243645  0.91228481  0.47806197    -0.76100
Al581      Al  0.54810874  0.87876870  0.48753277     1.90100
O582        O  0.59454072  0.86794932  0.43981905    -0.75100
O583        O  0.58387368  0.94036912  0.42122683    -0.75000
O584        O  0.57024664  0.89476952  0.38778278    -0.80600
O585        O  0.54926201  0.95458962  0.44797887    -0.78800
O586        O  0.55419502  0.90227915  0.45386184    -1.15000
O587        O  0.51203962  0.92718465  0.48413818    -0.74200
C588        C  0.51554212  0.91636225  0.01377736     0.96500
C589        C  0.58176660  0.84781645  0.44756764     0.92900
Al590      Al  0.58528288  0.90386127  0.43354244     1.55600
O591        O  0.51387064  0.87021442  0.47233907    -0.78800
C592        C  0.56825237  0.95869419  0.42747705     0.97100
C593        C  0.59984131  0.89862763  0.50615295     0.92000
O594        O  0.58093623  0.88319014  0.00981246    -0.84100
O595        O  0.53644302  0.09688284  0.22844722    -0.83600
C596        C  0.55415461  0.08732786  0.37396234     0.95800
O597        O  0.53966862  0.07307232  0.35540258    -0.72700
O598        O  0.50692422  0.10098806  0.32052821    -0.76300
Al599      Al  0.52958734  0.07393597  0.30758830     1.49000
C600        C  0.50076495  0.12066145  0.30245490     0.91000
O601        O  0.56012293  0.14792898  0.29245460    -0.82500
O602        O  0.60261086  0.08625128  0.26896473    -0.76100
Al603      Al  0.54889412  0.12055806  0.26237511     1.90100
O604        O  0.59563740  0.12936613  0.31007003    -0.75100
O605        O  0.58452951  0.05649037  0.32432110    -0.75000
O606        O  0.57232945  0.10058963  0.36038917    -0.80600
O607        O  0.54923985  0.04331825  0.29807407    -0.78800
O608        O  0.55480357  0.09577883  0.29434588    -1.15000
O609        O  0.51282919  0.07167655  0.26220830    -0.74200
C610        C  0.51645655  0.08341680  0.23317843     0.96500
C611        C  0.58260387  0.14967104  0.30455764     0.92900
Al612      Al  0.58618384  0.09324675  0.31402063     1.55600
O613        O  0.51499192  0.12885490  0.27778849    -0.78800
C614        C  0.56830796  0.03863157  0.31817791     0.97100
C615        C  0.60039489  0.10146878  0.24243370     0.92000
O616        O  0.58169139  0.11715174  0.23998481    -0.84100
O617        O  0.86642097  0.33768342  0.11800595    -0.83600
C618        C  0.83924596  0.30849976  0.25254958     0.95800
O619        O  0.85218032  0.32704936  0.23886653    -0.72700
O620        O  0.87990681  0.35116282  0.18776104    -0.76300
Al621      Al  0.84413665  0.34196610  0.19287382     1.49000
C622        C  0.89958821  0.33766369  0.18114022     0.91000
O623        O  0.87755682  0.26992755  0.15444871    -0.82500
O624        O  0.82131490  0.26825409  0.14084750    -0.76100
Al625      Al  0.86957479  0.30438661  0.13978776     1.90100
O626        O  0.85104738  0.26152523  0.19831205    -0.75100
O627        O  0.79434603  0.30532026  0.17709798    -0.75000
O628        O  0.82397437  0.29488442  0.23430225    -0.80600
O629        O  0.80780520  0.34053250  0.20426087    -0.78800
O630        O  0.84589518  0.31037934  0.17266385    -1.15000
O631        O  0.83673722  0.35925629  0.14795792    -0.74200
C632        C  0.85121249  0.35677606  0.12081297     0.96500
C633        C  0.87016358  0.25547524  0.17947253     0.92900
Al634      Al  0.82428545  0.28494822  0.18619503     1.55600
O635        O  0.89722790  0.31496855  0.16907822    -0.78800
C636        C  0.78993089  0.32442626  0.19757525     0.97100
C637        C  0.83225681  0.27229510  0.11147961     0.92000
O638        O  0.84522816  0.29270784  0.10660431    -0.84100
O639        O  0.63200554  0.33348918  0.38323317    -0.83600
C640        C  0.65914610  0.30413682  0.24898857     0.95800
O641        O  0.64582007  0.32233256  0.26253914    -0.72700
O642        O  0.61781403  0.34601764  0.31307094    -0.76300
Al643      Al  0.65369105  0.33783258  0.30800629     1.49000
C644        C  0.59838631  0.33206718  0.31968375     0.91000
O645        O  0.62186889  0.26503680  0.34692692    -0.82500
O646        O  0.67881250  0.26533502  0.36071273    -0.76100
Al647      Al  0.62928532  0.29984546  0.36162856     1.90100
O648        O  0.64906185  0.25705947  0.30375511    -0.75100
O649        O  0.70471626  0.30310243  0.32363009    -0.75000
O650        O  0.67495160  0.29118183  0.26711387    -0.80600
O651        O  0.68985793  0.33756609  0.29636900    -0.78800
O652        O  0.65283413  0.30635803  0.32865263    -1.15000
O653        O  0.66086724  0.35571360  0.35238588    -0.74200
C654        C  0.64654378  0.35318079  0.37963453     0.96500
C655        C  0.62981110  0.25060635  0.32217180     0.92900
Al656      Al  0.67517888  0.28159742  0.31527624     1.55600
O657        O  0.60118502  0.30965884  0.33247621    -0.78800
C658        C  0.70835812  0.32236741  0.30307226     0.97100
C659        C  0.66731836  0.26875377  0.38979524     0.92000
O660        O  0.65386913  0.28876326  0.39474463    -0.84100
O661        O  0.46205301  0.59509214  0.02043372    -0.83600
C662        C  0.44918736  0.58789498  0.37444598     0.95800
O663        O  0.46177919  0.57216143  0.39330183    -0.72700
O664        O  0.49536363  0.59783192  0.43069586    -0.76300
Al665      Al  0.47036063  0.57218565  0.44179375     1.49000
C666        C  0.50174292  0.61740113  0.44899012     0.91000
O667        O  0.44447030  0.64815180  0.45598683    -0.82500
O668        O  0.39737278  0.58865496  0.47606417    -0.76100
Al669      Al  0.45254875  0.61986502  0.48633955     1.90100
O670        O  0.40872920  0.63178002  0.43525557    -0.75100
O671        O  0.41497761  0.55821546  0.42122486    -0.75000
O672        O  0.43134572  0.60188135  0.38713776    -0.80600
O673        O  0.44833589  0.54277909  0.44962145    -0.78800
O674        O  0.44623404  0.59558926  0.45366887    -1.15000
O675        O  0.48545264  0.56886464  0.48818534    -0.74200
C676        C  0.48184933  0.58132145  0.01666335     0.96500
C677        C  0.42342847  0.65114017  0.44012702     0.92900
Al678      Al  0.41551842  0.59505476  0.43208866     1.55600
O679        O  0.48723643  0.62609141  0.47297613    -0.78800
C680        C  0.42970404  0.53931260  0.42822770     0.97100
C681        C  0.39986189  0.60306089  0.50339148     0.92000
O682        O  0.41887875  0.61838508  0.00669010    -0.84100
O683        O  0.46010306  0.39681767  0.23098668    -0.83600
C684        C  0.44331983  0.40804701  0.37636620     0.95800
O685        O  0.45762049  0.42241105  0.35770670    -0.72700
O686        O  0.49064681  0.39539558  0.32178493    -0.76300
Al687      Al  0.46697285  0.42187989  0.30952719     1.49000
C688        C  0.49659041  0.37521586  0.30464296     0.91000
O689        O  0.43628274  0.34766998  0.29738602    -0.82500
O690        O  0.39409370  0.40929111  0.27088622    -0.76100
Al691      Al  0.44756702  0.37419871  0.26603069     1.90100
O692        O  0.40045096  0.36649125  0.31276883    -0.75100
O693        O  0.41205677  0.43935495  0.32722802    -0.75000
O694        O  0.42455000  0.39531793  0.36308383    -0.80600
O695        O  0.44700775  0.45242403  0.30062772    -0.78800
O696        O  0.44179734  0.39972504  0.29701824    -1.15000
O697        O  0.48242022  0.42427086  0.26357674    -0.74200
C698        C  0.47905401  0.41191366  0.23489854     0.96500
C699        C  0.41347317  0.34607693  0.30818514     0.92900
Al700      Al  0.41040854  0.40255030  0.31658528     1.55600
O701        O  0.48164962  0.36605450  0.28135987    -0.78800
C702        C  0.42821663  0.45720571  0.32101207     0.97100
C703        C  0.39618972  0.39343933  0.24486806     0.92000
O704        O  0.41461562  0.37732373  0.24345792    -0.84100
C705        C  0.45186054  0.50637520  0.38946366    -0.15100
C706        C  0.42879217  0.51626674  0.40370899     0.07000
C707        C  0.40545469  0.50818090  0.38793965    -0.15100
C708        C  0.40517879  0.49005010  0.35973599    -0.15100
C709        C  0.42827877  0.48045062  0.34520456     0.07000
C710        C  0.45162121  0.48904168  0.36043281    -0.15100
H711        H  0.47025285  0.51283396  0.39992251     0.11000
H712        H  0.38736542  0.51600355  0.39739412     0.11000
H713        H  0.38683734  0.48335067  0.34938656     0.11000
H714        H  0.46978367  0.48150195  0.35082103     0.11000
C715        C  0.56801149  0.36939583  0.32080362    -0.15100
C716        C  0.57232173  0.34276005  0.31477658     0.07000
C717        C  0.55138163  0.32648383  0.30626211    -0.15100
C718        C  0.52654473  0.33687178  0.30316981    -0.15100
C719        C  0.52221412  0.36346777  0.30988749     0.07000
C720        C  0.54316469  0.37957994  0.31883506    -0.15100
H721        H  0.58382091  0.38226473  0.32777402     0.11000
H722        H  0.55430161  0.30584566  0.30162694     0.11000
H723        H  0.51071731  0.32414833  0.29580237     0.11000
H724        H  0.54041545  0.40024691  0.32346202     0.11000
C725        C  0.75968819  0.30071907  0.23797918    -0.15100
C726        C  0.76711067  0.32428124  0.22166688     0.07000
C727        C  0.75659991  0.34762818  0.23482505    -0.15100
C728        C  0.73847922  0.34728164  0.26265307    -0.15100
C729        C  0.73137455  0.32370665  0.27931409     0.07000
C730        C  0.74240551  0.30046547  0.26664260    -0.15100
H731        H  0.76804104  0.28243336  0.22944291     0.11000
H732        H  0.76246299  0.36616041  0.22359464     0.11000
H733        H  0.72982132  0.36546715  0.27100776     0.11000
H734        H  0.73684066  0.28186097  0.27794102     0.11000
C735        C  0.57928599  0.19736194  0.31824681    -0.15100
C736        C  0.59441261  0.17553001  0.30995905     0.07000
C737        C  0.62099315  0.17876713  0.30469748    -0.15100
C738        C  0.63227449  0.20343384  0.30739291    -0.15100
C739        C  0.61728559  0.22518272  0.31629020     0.07000
C740        C  0.59073932  0.22196112  0.32203341    -0.15100
H741        H  0.55871467  0.19532008  0.32218566     0.11000
H742        H  0.63298369  0.16226810  0.29781404     0.11000
H743        H  0.65284714  0.20542262  0.30339007     0.11000
H744        H  0.57887956  0.23850122  0.32916504     0.11000
C745        C  0.59182803  0.98896218  0.38585909    -0.15100
C746        C  0.56874995  0.98149380  0.40272166     0.07000
C747        C  0.54548131  0.99142472  0.38911530    -0.15100
C748        C  0.54528013  0.00804634  0.35939071    -0.15100
C749        C  0.56838045  0.01579446  0.34283252     0.07000
C750        C  0.59167839  0.00628343  0.35686057    -0.15100
H751        H  0.61004373  0.98113420  0.39492212     0.11000
H752        H  0.52726561  0.98549698  0.40058025     0.11000
H753        H  0.52702194  0.01572873  0.35026989     0.11000
H754        H  0.60985459  0.01248891  0.34554124     0.11000
C755        C  0.44678912  0.16988141  0.30407911    -0.15100
C756        C  0.42562829  0.15351105  0.31088191     0.07000
C757        C  0.42964098  0.12681423  0.31660789    -0.15100
C758        C  0.45439151  0.11654963  0.31564235    -0.15100
C759        C  0.47549557  0.13266519  0.30790754     0.07000
C760        C  0.47158833  0.15939332  0.30187954    -0.15100
H761        H  0.44406481  0.19060318  0.29996437     0.11000
H762        H  0.41363901  0.11391718  0.32241749     0.11000
H763        H  0.45694397  0.09579842  0.31975595     0.11000
H764        H  0.48767381  0.17206200  0.29554867     0.11000
C765        C  0.25873591  0.15127328  0.25729561    -0.15100
C766        C  0.26742231  0.17354924  0.27568222     0.07000
C767        C  0.25909112  0.19815082  0.26378488    -0.15100
C768        C  0.24279181  0.20049969  0.23427381    -0.15100
C769        C  0.23347629  0.17828395  0.21651936     0.07000
C770        C  0.24141227  0.15358419  0.22866789    -0.15100
H771        H  0.26537098  0.13209833  0.26508728     0.11000
H772        H  0.26596667  0.21580486  0.27649655     0.11000
H773        H  0.23634962  0.21975498  0.22652761     0.11000
H774        H  0.23387489  0.13605914  0.21630499     0.11000
C775        C  0.41633625  0.29850658  0.32178068    -0.15100
C776        C  0.40139405  0.32027154  0.31272909     0.07000
C777        C  0.37506672  0.31687608  0.30525281    -0.15100
C778        C  0.36392500  0.29204008  0.30642492    -0.15100
C779        C  0.37880991  0.27034612  0.31599396     0.07000
C780        C  0.40503406  0.27379959  0.32395751    -0.15100
H781        H  0.43670047  0.30066040  0.32741261     0.11000
H782        H  0.36324026  0.33335401  0.29775583     0.11000
H783        H  0.34356763  0.28987360  0.30073058     0.11000
H784        H  0.41681065  0.25732926  0.33167000     0.11000
C785        C  0.35863424  0.11263424  0.46530713    -0.15100
C786        C  0.38045645  0.09686173  0.46073836     0.07000
C787        C  0.38800777  0.09037131  0.42599049    -0.15100
C788        C  0.37564269  0.10156555  0.39652390    -0.15100
C789        C  0.35582752  0.11984030  0.40127005     0.07000
C790        C  0.34660239  0.12425787  0.43584027    -0.15100
H791        H  0.35299550  0.11869679  0.49175404     0.11000
H792        H  0.40528457  0.07899098  0.42172784     0.11000
H793        H  0.38371019  0.09848308  0.37034096     0.11000
H794        H  0.33203464  0.13897056  0.44036440     0.11000
C795        C  0.50948848  0.10581820  0.44181966    -0.15100
C796        C  0.50545757  0.08140014  0.45795083     0.07000
C797        C  0.52383774  0.06173921  0.45358062    -0.15100
C798        C  0.54419417  0.06548385  0.42980330    -0.15100
C799        C  0.54659885  0.08909770  0.41096182     0.07000
C800        C  0.53019466  0.10978643  0.41905938    -0.15100
H801        H  0.49622796  0.12177428  0.44615234     0.11000
H802        H  0.52160932  0.04312338  0.46684196     0.11000
H803        H  0.55630062  0.04902004  0.42308652     0.11000
H804        H  0.53128059  0.12786805  0.40419540     0.11000
C805        C  0.47235927  0.11233859  0.16420655    -0.15100
C806        C  0.45446645  0.09228501  0.15883467     0.07000
C807        C  0.45548094  0.07001086  0.18064488    -0.15100
C808        C  0.47557804  0.06682582  0.20511447    -0.15100
C809        C  0.49521097  0.08561261  0.20733145     0.07000
C810        C  0.49278292  0.10886351  0.18776422    -0.15100
H811        H  0.47244640  0.12927259  0.14695535     0.11000
H812        H  0.44232712  0.05389405  0.17602577     0.11000
H813        H  0.47650872  0.04917375  0.22086118     0.11000
H814        H  0.50701685  0.12426525  0.19013299     0.11000
C815        C  0.45283573  0.98847075  0.13937783    -0.15100
C816        C  0.42928502  0.98018751  0.15412093     0.07000
C817        C  0.40634357  0.98949426  0.13882042    -0.15100
C818        C  0.40694518  0.00689287  0.10998667    -0.15100
C819        C  0.43047635  0.01464100  0.09467169     0.07000
C820        C  0.45341679  0.00519216  0.10983369    -0.15100
H821        H  0.47087621  0.98104625  0.14965916     0.11000
H822        H  0.38788877  0.98294295  0.14885814     0.11000
H823        H  0.38895594  0.01446677  0.09972897     0.11000
H824        H  0.47191109  0.01149714  0.09964946     0.11000
C825        C  0.54211762  0.92458410  0.31418380    -0.15100
C826        C  0.54200848  0.90341540  0.33799404     0.07000
C827        C  0.52235586  0.88476271  0.33530511    -0.15100
C828        C  0.50199811  0.88834724  0.31159724    -0.15100
C829        C  0.50119008  0.91030987  0.28921614     0.07000
C830        C  0.52209416  0.92775891  0.28950076    -0.15100
H831        H  0.55647276  0.93985841  0.31685380     0.11000
H832        H  0.52120359  0.86893661  0.35434453     0.11000
H833        H  0.48664428  0.87399154  0.31116067     0.11000
H834        H  0.52236033  0.94441676  0.27181493     0.11000
C835        C  0.49019827  0.88944700  0.05577581    -0.15100
C836        C  0.49371064  0.91351366  0.03845578     0.07000
C837        C  0.47459787  0.93263133  0.04149261    -0.15100
C838        C  0.45397467  0.92883982  0.06489869    -0.15100
C839        C  0.45188109  0.90562324  0.08471608     0.07000
C840        C  0.46920856  0.88537478  0.07814741    -0.15100
H841        H  0.50400876  0.87383144  0.05254746     0.11000
H842        H  0.47637845  0.95094574  0.02736166     0.11000
H843        H  0.44124753  0.94506165  0.07042513     0.11000
H844        H  0.46843484  0.86763780  0.09378510     0.11000
C845        C  0.57318575  0.62523081  0.43611171    -0.15100
C846        C  0.57636050  0.65216095  0.44153270     0.07000
C847        C  0.55466409  0.66773749  0.44782880    -0.15100
C848        C  0.53022056  0.65644843  0.44963194    -0.15100
C849        C  0.52705618  0.62957343  0.44403855     0.07000
C850        C  0.54864319  0.61405539  0.43694882    -0.15100
H851        H  0.58961664  0.61293524  0.43050377     0.11000
H852        H  0.55665734  0.68859938  0.45160280     0.11000
H853        H  0.51375461  0.66869106  0.45529236     0.11000
H854        H  0.54659055  0.59320854  0.43304702     0.11000
C855        C  0.63233314  0.79486009  0.44696319    -0.15100
C856        C  0.61761482  0.77249656  0.43964786     0.07000
C857        C  0.59082492  0.77493449  0.43525543    -0.15100
C858        C  0.57897862  0.79937035  0.43817128    -0.15100
C859        C  0.59386071  0.82185518  0.44428885     0.07000
C860        C  0.62062107  0.81933691  0.44880571    -0.15100
H861        H  0.65304435  0.79353780  0.44998019     0.11000
H862        H  0.57910054  0.75794552  0.42940069     0.11000
H863        H  0.55830009  0.80078974  0.43488908     0.11000
H864        H  0.63248487  0.83632519  0.45410583     0.11000
C865        C  0.76754378  0.70500226  0.49877943    -0.15100
C866        C  0.77434579  0.68396039  0.02109982     0.07000
C867        C  0.76250956  0.65968167  0.01472865    -0.15100
C868        C  0.74334237  0.65710178  0.98815380    -0.15100
C869        C  0.73637288  0.67844971  0.46629658     0.07000
C870        C  0.74926025  0.70221364  0.47165501    -0.15100
H871        H  0.77665687  0.72390085  0.50194062     0.11000
H872        H  0.76760338  0.64293184  0.03074993     0.11000
H873        H  0.73343971  0.63859073  0.98534019     0.11000
H874        H  0.74416033  0.71924527  0.45617455     0.11000
C875        C  0.87961235  0.18350070  0.19196189    -0.15100
C876        C  0.90626026  0.18096503  0.18667673     0.07000
C877        C  0.92125395  0.20336525  0.18073054    -0.15100
C878        C  0.90959014  0.22787478  0.17909519    -0.15100
C879        C  0.88297624  0.23032916  0.18464939     0.07000
C880        C  0.86811351  0.20802825  0.19137871    -0.15100
H881        H  0.86771974  0.16653257  0.19717731     0.11000
H882        H  0.94187263  0.20185775  0.17694134     0.11000
H883        H  0.92129393  0.24491536  0.17352106     0.11000
H884        H  0.84747452  0.20950356  0.19505646     0.11000
C885        C  0.03013660  0.16338698  0.19904062    -0.15100
C886        C  0.02532701  0.13796401  0.18647210     0.07000
C887        C  0.04544757  0.12396239  0.17054469    -0.15100
C888        C  0.07003919  0.13488049  0.16808500    -0.15100
C889        C  0.07478612  0.16020971  0.18066812     0.07000
C890        C  0.05461702  0.17459079  0.19562641    -0.15100
H891        H  0.01499804  0.17454533  0.21163160     0.11000
H892        H  0.04236944  0.10427847  0.16091670     0.11000
H893        H  0.08533758  0.12365388  0.15595872     0.11000
H894        H  0.05796201  0.19421744  0.20531481     0.11000
C895        C  0.89065458  0.82461258  0.09045291    -0.15100
C896        C  0.91383979  0.82655863  0.07178372     0.07000
C897        C  0.92795572  0.80366263  0.06461276    -0.15100
C898        C  0.91807376  0.77909642  0.07407662    -0.15100
C899        C  0.89395514  0.77730634  0.09052823     0.07000
C900        C  0.88076849  0.80033789  0.09938628    -0.15100
H901        H  0.87947515  0.84180361  0.09677709     0.11000
H902        H  0.94604884  0.80466192  0.05039658     0.11000
H903        H  0.92835779  0.76161765  0.06648543     0.11000
H904        H  0.86189769  0.79960204  0.11149033     0.11000
C905        C  0.90902939  0.99720211  0.10352458    -0.15100
C906        C  0.93251360  0.98643333  0.09225034     0.07000
C907        C  0.95496667  0.99308671  0.11134169    -0.15100
C908        C  0.95396972  0.00990962  0.14084763    -0.15100
C909        C  0.93056909  0.02116891  0.15169363     0.07000
C910        C  0.90815236  0.01473977  0.13229584    -0.15100
H911        H  0.89127255  0.99184020  0.09020862     0.11000
H912        H  0.97325192  0.98437999  0.10437782     0.11000
H913        H  0.97175889  0.01489506  0.15434278     0.11000
H914        H  0.88989647  0.02354784  0.13918229     0.11000
C915        C  0.12224813  0.32529459  0.19334589    -0.15100
C916        C  0.09562237  0.32777165  0.18749436     0.07000
C917        C  0.08093867  0.30545117  0.17983051    -0.15100
C918        C  0.09284115  0.28110896  0.17726992    -0.15100
C919        C  0.11942664  0.27863476  0.18347633     0.07000
C920        C  0.13400589  0.30087452  0.19176152    -0.15100
H921        H  0.13392050  0.34221774  0.19973079     0.11000
H922        H  0.06036965  0.30690010  0.17541076     0.11000
H923        H  0.08130404  0.26418638  0.17041671     0.11000
H924        H  0.15460834  0.29947591  0.19592021     0.11000
C925        C  0.97122273  0.34428455  0.19650200    -0.15100
C926        C  0.97524932  0.37073383  0.18845513     0.07000
C927        C  0.95420539  0.38616638  0.17819993    -0.15100
C928        C  0.92945274  0.37549487  0.17689239    -0.15100
C929        C  0.92544238  0.34907941  0.18497529     0.07000
C930        C  0.94654637  0.33342740  0.19419103    -0.15100
H931        H  0.98715030  0.33205923  0.20467530     0.11000
H932        H  0.95676910  0.40669038  0.17229485     0.11000
H933        H  0.91348158  0.38777504  0.16901576     0.11000
H934        H  0.94385693  0.31292586  0.20012906     0.11000
C935        C  0.09236889  0.51319688  0.11077277    -0.15100
C936        C  0.06889859  0.52183825  0.09622824     0.07000
C937        C  0.04587458  0.51288946  0.11176615    -0.15100
C938        C  0.04630053  0.49609882  0.14124763    -0.15100
C939        C  0.06975417  0.48721801  0.15555694     0.07000
C940        C  0.09277980  0.49571726  0.13953556    -0.15100
H941        H  0.11045391  0.52029348  0.10015075     0.11000
H942        H  0.02745910  0.51980968  0.10211337     0.11000
H943        H  0.02816889  0.48922598  0.15197161     0.11000
H944        H  0.11114793  0.48860408  0.14910786     0.11000
C945        C  0.96294564  0.65019747  0.03077447    -0.15100
C946        C  0.97669866  0.64047231  0.06016726     0.07000
C947        C  0.96550080  0.64128812  0.09394738    -0.15100
C948        C  0.94088823  0.65155852  0.09829201    -0.15100
C949        C  0.92678037  0.66065934  0.06881475     0.07000
C950        C  0.93802136  0.65997060  0.03500462    -0.15100
H951        H  0.97114914  0.64945657  0.00434703     0.11000
H952        H  0.97570981  0.63382368  0.11691520     0.11000
H953        H  0.93265422  0.65186982  0.12473067     0.11000
H954        H  0.92761521  0.66705392  0.01199499     0.11000
C955        C  0.34695551  0.36056152  0.18815863    -0.15100
C956        C  0.35482717  0.36840793  0.15406099     0.07000
C957        C  0.37195634  0.38960748  0.15126548    -0.15100
C958        C  0.38298555  0.40086203  0.18189448    -0.15100
C959        C  0.37682246  0.39139232  0.21592908     0.07000
C960        C  0.35770542  0.37202994  0.21872906    -0.15100
H961        H  0.33459311  0.34364072  0.19116499     0.11000
H962        H  0.37914378  0.39539556  0.12542699     0.11000
H963        H  0.39837495  0.41499316  0.17880972     0.11000
H964        H  0.35331688  0.36361241  0.24442235     0.11000
C965        C  0.31876760  0.28749628  0.43769347    -0.15100
C966        C  0.34134501  0.28959546  0.45828028     0.07000
C967        C  0.36067899  0.27088978  0.45412825    -0.15100
C968        C  0.35646236  0.24907435  0.43273481    -0.15100
C969        C  0.33314009  0.24596226  0.41409393     0.07000
C970        C  0.31480789  0.26597387  0.41544497    -0.15100
H971        H  0.30313002  0.30116012  0.44159279     0.11000
H972        H  0.37778344  0.27153540  0.47067929     0.11000
H973        H  0.37148337  0.23451315  0.43098471     0.11000
H974        H  0.29707206  0.26448635  0.40036492     0.11000
C975        C  0.31665171  0.22412826  0.16341428    -0.15100
C976        C  0.33549397  0.24376635  0.16172162     0.07000
C977        C  0.35785839  0.24140848  0.18265173    -0.15100
C978        C  0.36060356  0.22082969  0.20645752    -0.15100
C979        C  0.34077638  0.20259028  0.21051518     0.07000
C980        C  0.31906346  0.20391481  0.18818744    -0.15100
H981        H  0.29963550  0.22504934  0.14676971     0.11000
H982        H  0.37321124  0.25570611  0.18095885     0.11000
H983        H  0.37699089  0.22076524  0.22436782     0.11000
H984        H  0.30308486  0.19055404  0.19197502     0.11000
C985        C  0.36950654  0.20184254  0.04248246    -0.15100
C986        C  0.38338297  0.22268385  0.05746670     0.07000
C987        C  0.40895530  0.21867650  0.06851996    -0.15100
C988        C  0.42036331  0.19416858  0.06494338    -0.15100
C989        C  0.40609273  0.17318687  0.05130175     0.07000
C990        C  0.38068111  0.17719105  0.03985372    -0.15100
H991        H  0.34973696  0.20437595  0.03394065     0.11000
H992        H  0.42003758  0.23444260  0.08020830     0.11000
H993        H  0.44007282  0.19141287  0.07363068     0.11000
H994        H  0.36955688  0.16126102  0.02863873     0.11000
C995        C  0.25673192  0.29667611  0.01275121    -0.15100
C996        C  0.26738256  0.31965121  0.02714170     0.07000
C997        C  0.26012067  0.34361703  0.51194340    -0.15100
C998        C  0.24237860  0.34465505  0.48371088    -0.15100
C999        C  0.23214625  0.32167669  0.46882428     0.07000
C1000       C  0.23961428  0.29766589  0.98377503    -0.15100
H1001       H  0.26251763  0.27780728  0.02288639     0.11000
H1002       H  0.26853712  0.36163687  0.52160880     0.11000
H1003       H  0.23647815  0.36349803  0.47361179     0.11000
H1004       H  0.23143952  0.27958832  0.97393734     0.11000
C1005       C  0.15240652  0.37079113  0.30920574    -0.15100
C1006       C  0.14367194  0.37654680  0.34362217     0.07000
C1007       C  0.12466292  0.39573862  0.34783442    -0.15100
C1008       C  0.11269869  0.40690602  0.31808734    -0.15100
C1009       C  0.11988296  0.39943431  0.28360219     0.07000
C1010       C  0.14073661  0.38231333  0.27942896    -0.15100
H1011       H  0.16623526  0.35528793  0.30518268     0.11000
H1012       H  0.11689297  0.39973705  0.37396957     0.11000
H1013       H  0.09602080  0.41922368  0.32201436     0.11000
H1014       H  0.14591305  0.37544050  0.25316645     0.11000
C1015       C  0.18579503  0.29785483  0.05637866    -0.15100
C1016       C  0.16186666  0.30281471  0.04001541     0.07000
C1017       C  0.14020930  0.28871919  0.05082162    -0.15100
C1018       C  0.14315661  0.26720906  0.07301599    -0.15100
C1019       C  0.16764643  0.26013481  0.08577780     0.07000
C1020       C  0.18865713  0.27664147  0.07939260    -0.15100
H1021       H  0.20285260  0.30836007  0.04789868     0.11000
H1022       H  0.12169898  0.29197986  0.03823735     0.11000
H1023       H  0.12632639  0.25557677  0.07932632     0.11000
H1024       H  0.20745929  0.27219979  0.09030551     0.11000
C1025       C  0.14045604  0.25025115  0.31051970    -0.15100
C1026       C  0.16180729  0.25150128  0.33353898     0.07000
C1027       C  0.17985877  0.23116055  0.33296439    -0.15100
C1028       C  0.17764741  0.21115004  0.30777393    -0.15100
C1029       C  0.15688105  0.21069169  0.28373275     0.07000
C1030       C  0.13787566  0.22988863  0.28621056    -0.15100
H1031       H  0.12574929  0.26518865  0.31105671     0.11000
H1032       H  0.19612985  0.23127427  0.35102250     0.11000
H1033       H  0.19316630  0.19719250  0.30515638     0.11000
H1034       H  0.12238830  0.23063311  0.26686658     0.11000
C1035       C  0.99284265  0.89360493  0.19071475    -0.15100
C1036       C  0.99778534  0.91754456  0.20767368     0.07000
C1037       C  0.98018419  0.93802508  0.20399640    -0.15100
C1038       C  0.95972559  0.93558972  0.18008723    -0.15100
C1039       C  0.95645728  0.91246009  0.16047988     0.07000
C1040       C  0.97200938  0.89094409  0.16776294    -0.15100
H1041       H  0.00542366  0.87702818  0.19466634     0.11000
H1042       H  0.98305981  0.95624639  0.21806185     0.11000
H1043       H  0.94817156  0.95260148  0.17405573     0.11000
H1044       H  0.97012829  0.87319314  0.15228012     0.11000
C1045       C  0.04571601  0.93132371  0.43128583    -0.15100
C1046       C  0.04650549  0.90925183  0.40912676     0.07000
C1047       C  0.02780899  0.88976546  0.41321731    -0.15100
C1048       C  0.00708080  0.89359778  0.43611141    -0.15100
C1049       C  0.00508027  0.91667147  0.45618965     0.07000
C1050       C  0.02530113  0.93486198  0.45501273    -0.15100
H1051       H  0.05944959  0.94705078  0.42759149     0.11000
H1052       H  0.02752850  0.87303437  0.39557594     0.11000
H1053       H  0.99237644  0.87860690  0.43767796     0.11000
H1054       H  0.02470406  0.95233239  0.47118664     0.11000
C1055       C  0.13130210  0.11122450  0.09250096    -0.15100
C1056       C  0.14743708  0.13298888  0.08776176     0.07000
C1057       C  0.15357860  0.14075709  0.05297875    -0.15100
C1058       C  0.14190479  0.12860824  0.02366317    -0.15100
C1059       C  0.12348658  0.10883272  0.02861408     0.07000
C1060       C  0.11916471  0.09944116  0.06316926    -0.15100
H1061       H  0.12551655  0.10548377  0.11902247     0.11000
H1062       H  0.16520257  0.15805507  0.04863904     0.11000
H1063       H  0.14487163  0.13682761  0.99747358     0.11000
H1064       H  0.10434491  0.08491999  0.06780260     0.11000
C1065       C  0.07723221  0.20196648  0.43332111    -0.15100
C1066       C  0.09310948  0.18017411  0.43849579     0.07000
C1067       C  0.11968272  0.18371780  0.44331835    -0.15100
C1068       C  0.13026394  0.20867474  0.44322509    -0.15100
C1069       C  0.11454504  0.23041478  0.43729791     0.07000
C1070       C  0.08798702  0.22696282  0.43207020    -0.15100
H1071       H  0.05663888  0.19960763  0.42984158     0.11000
H1072       H  0.13223482  0.16720352  0.44777297     0.11000
H1073       H  0.15089118  0.21092576  0.44652878     0.11000
H1074       H  0.07565767  0.24356576  0.42699963     0.11000
C1075       C  0.04890690  0.01128746  0.38695557    -0.15100
C1076       C  0.07233613  0.02054236  0.40104374     0.07000
C1077       C  0.09536052  0.01296275  0.38429767    -0.15100
C1078       C  0.09498734  0.99575162  0.35523492    -0.15100
C1079       C  0.07153253  0.98657002  0.34116191     0.07000
C1080       C  0.04849554  0.99484869  0.35714906    -0.15100
H1081       H  0.03075819  0.01754627  0.39818876     0.11000
H1082       H  0.11367607  0.02049651  0.39363465     0.11000
H1083       H  0.11307404  0.98919139  0.34411318     0.11000
H1084       H  0.03011728  0.98753675  0.34772596     0.11000
C1085       C  0.99564511  0.11121178  0.05729713    -0.15100
C1086       C  0.99814190  0.08765827  0.03839424     0.07000
C1087       C  0.97826871  0.06912141  0.04042667    -0.15100
C1088       C  0.95774258  0.07294165  0.06397064    -0.15100
C1089       C  0.95642710  0.09568156  0.08489466     0.07000
C1090       C  0.97478343  0.11534249  0.07982169    -0.15100
H1091       H  0.01008841  0.12641465  0.05511117     0.11000
H1092       H  0.97925972  0.05122333  0.02518427     0.11000
H1093       H  0.94431273  0.05706313  0.06849208     0.11000
H1094       H  0.97473669  0.13257749  0.09654128     0.11000
C1095       C  0.02794856  0.11589005  0.33048031    -0.15100
C1096       C  0.04490745  0.09515337  0.33580938     0.07000
C1097       C  0.04247751  0.07252631  0.31489867    -0.15100
C1098       C  0.02203616  0.06989747  0.29096205    -0.15100
C1099       C  0.00351500  0.08963097  0.28842865     0.07000
C1100       C  0.00718307  0.11301392  0.30739873    -0.15100
H1101       H  0.02897315  0.13309227  0.34721284     0.11000
H1102       H  0.05491277  0.05593915  0.31966448     0.11000
H1103       H  0.02006452  0.05208872  0.27567537     0.11000
H1104       H  0.99377628  0.12905163  0.30473822     0.11000
C1105       C  0.57061664  0.12766262  0.06647985    -0.15100
C1106       C  0.57416016  0.15429418  0.05939001     0.07000
C1107       C  0.55288542  0.16947632  0.04930446    -0.15100
C1108       C  0.52848485  0.15800419  0.04583035    -0.15100
C1109       C  0.52491581  0.13146464  0.05378284     0.07000
C1110       C  0.54616876  0.11643949  0.06418591    -0.15100
H1111       H  0.58668897  0.11562463  0.07459665     0.11000
H1112       H  0.55520713  0.19009197  0.04383355     0.11000
H1113       H  0.51237389  0.16986479  0.03734615     0.11000
H1114       H  0.54396255  0.09582349  0.06977003     0.11000
C1115       C  0.68335640  0.22692046  0.41634397    -0.15100
C1116       C  0.66496395  0.24687820  0.41485607     0.07000
C1117       C  0.64177871  0.24394086  0.43372803    -0.15100
C1118       C  0.63790303  0.22258378  0.45586101    -0.15100
C1119       C  0.65756628  0.20438315  0.46074542     0.07000
C1120       C  0.67982254  0.20593632  0.43960281    -0.15100
H1121       H  0.70091971  0.22823041  0.40095171     0.11000
H1122       H  0.62668180  0.25841084  0.43182017     0.11000
H1123       H  0.62096674  0.22219409  0.47268251     0.11000
H1124       H  0.69558389  0.19247889  0.44390402     0.11000
C1125       C  0.68078016  0.27390307  0.16617370    -0.15100
C1126       C  0.66258631  0.25367099  0.16422929     0.07000
C1127       C  0.63990496  0.25548864  0.18450657    -0.15100
C1128       C  0.63636405  0.27601082  0.20822448    -0.15100
C1129       C  0.65573190  0.29469878  0.21288897     0.07000
C1130       C  0.67754425  0.29409955  0.19079557    -0.15100
H1131       H  0.69798722  0.27342470  0.14995665     0.11000
H1132       H  0.62497711  0.24075334  0.18248931     0.11000
H1133       H  0.61986994  0.27555426  0.22585674     0.11000
H1134       H  0.69316010  0.30784327  0.19499527     0.11000
C1135       C  0.62549371  0.10799673  0.15022827    -0.15100
C1136       C  0.64427999  0.12743177  0.15533518     0.07000
C1137       C  0.65268890  0.13274823  0.19012280    -0.15100
C1138       C  0.64087896  0.12057574  0.21934328    -0.15100
C1139       C  0.62010353  0.10332431  0.21427426     0.07000
C1140       C  0.61333403  0.09624194  0.17941848    -0.15100
H1141       H  0.61799961  0.10424117  0.12382552     0.11000
H1142       H  0.66639739  0.14834250  0.19488435     0.11000
H1143       H  0.64580464  0.12711167  0.24589961     0.11000
H1144       H  0.59676821  0.08378379  0.17477352     0.11000
C1145       C  0.93000596  0.13056411  0.43587885    -0.15100
C1146       C  0.92746719  0.15775428  0.43908494     0.07000
C1147       C  0.94973280  0.17323622  0.44221783    -0.15100
C1148       C  0.97404987  0.16162739  0.44314065    -0.15100
C1149       C  0.97648369  0.13448612  0.43977623     0.07000
C1150       C  0.95434033  0.11905760  0.43577736    -0.15100
H1151       H  0.91317963  0.11821102  0.43291599     0.11000
H1152       H  0.94830948  0.19425933  0.44429307     0.11000
H1153       H  0.99097521  0.17379412  0.44655932     0.11000
H1154       H  0.95583275  0.09802661  0.43382558     0.11000
C1155       C  0.84853243  0.13602939  0.31025698    -0.15100
C1156       C  0.85912438  0.13181846  0.34420237     0.07000
C1157       C  0.87968211  0.11419644  0.34739610    -0.15100
C1158       C  0.89086033  0.10289375  0.31713432    -0.15100
C1159       C  0.88164703  0.10874157  0.28288388     0.07000
C1160       C  0.85957211  0.12445114  0.27990728    -0.15100
H1161       H  0.83340445  0.15031510  0.30680478     0.11000
H1162       H  0.88893827  0.11142007  0.37293794     0.11000
H1163       H  0.90845739  0.09179975  0.32022781     0.11000
H1164       H  0.85271698  0.13022976  0.25387662     0.11000
C1165       C  0.82090444  0.20902985  0.06182953    -0.15100
C1166       C  0.84269876  0.20841193  0.03969511     0.07000
C1167       C  0.86140537  0.22793773  0.04307838    -0.15100
C1168       C  0.85715794  0.24918741  0.06528132    -0.15100
C1169       C  0.83458851  0.25080987  0.08575393     0.07000
C1170       C  0.81707844  0.22990965  0.08521376    -0.15100
H1171       H  0.80572244  0.19467098  0.05854353     0.11000
H1172       H  0.87781305  0.22841961  0.02529000     0.11000
H1173       H  0.87155895  0.26450865  0.06617101     0.11000
H1174       H  0.79998110  0.23028436  0.10165842     0.11000
C1175       C  0.81801900  0.27645013  0.33467067    -0.15100
C1176       C  0.83792441  0.25819074  0.33805891     0.07000
C1177       C  0.86102787  0.26234115  0.31930752    -0.15100
C1178       C  0.86337179  0.28295839  0.29534038    -0.15100
C1179       C  0.84246813  0.29946273  0.28902678     0.07000
C1180       C  0.82014908  0.29674180  0.30992294    -0.15100
H1181       H  0.80037658  0.27422697  0.34970067     0.11000
H1182       H  0.87718857  0.24924023  0.32257172     0.11000
H1183       H  0.88041106  0.28412114  0.27879649     0.11000
H1184       H  0.80344577  0.30875698  0.30458407     0.11000
C1185       C  0.75922402  0.15739985  0.98482547    -0.15100
C1186       C  0.76840145  0.18109893  0.47066702     0.07000
C1187       C  0.75947965  0.20443424  0.48607108    -0.15100
C1188       C  0.74213520  0.20410699  0.51478586    -0.15100
C1189       C  0.73256579  0.18043708  0.02853963     0.07000
C1190       C  0.74113212  0.15708484  0.01273202    -0.15100
H1191       H  0.76622996  0.13904727  0.97442126     0.11000
H1192       H  0.76673459  0.22305527  0.47683296     0.11000
H1193       H  0.73540614  0.22251950  0.52533723     0.11000
H1194       H  0.73366830  0.13851485  0.02185861     0.11000
C1195       C  0.64014529  0.38054167  0.47113607    -0.15100
C1196       C  0.61954910  0.39784052  0.46581584     0.07000
C1197       C  0.61322754  0.40500322  0.43081899    -0.15100
C1198       C  0.62559666  0.39327872  0.40175739    -0.15100
C1199       C  0.64408619  0.37370736  0.40710854     0.07000
C1200       C  0.65209470  0.36834599  0.44206110    -0.15100
H1201       H  0.64477093  0.37394228  0.49773294     0.11000
H1202       H  0.59683065  0.41752843  0.42591086     0.11000
H1203       H  0.61838404  0.39709484  0.37523558     0.11000
H1204       H  0.66558673  0.35267774  0.44702795     0.11000
C1205       C  0.47042527  0.38610880  0.41862913    -0.15100
C1206       C  0.45188796  0.40540120  0.41299975     0.07000
C1207       C  0.45244513  0.42805709  0.43415207    -0.15100
C1208       C  0.47263603  0.43230843  0.45827776    -0.15100
C1209       C  0.49291169  0.41434101  0.46046626     0.07000
C1210       C  0.49098414  0.39072598  0.44159849    -0.15100
H1211       H  0.47086994  0.36890502  0.40186304     0.11000
H1212       H  0.43877237  0.44359951  0.42933554     0.11000
H1213       H  0.47318152  0.45019535  0.47359898     0.11000
H1214       H  0.50573486  0.37593038  0.44399495     0.11000
C1215       C  0.53949288  0.42863421  0.18349212    -0.15100
C1216       C  0.54132723  0.40701628  0.16060336     0.07000
C1217       C  0.52321339  0.38687719  0.16340283    -0.15100
C1218       C  0.50240721  0.38924589  0.18649109    -0.15100
C1219       C  0.49970376  0.41148758  0.20809016     0.07000
C1220       C  0.51902503  0.43068184  0.20746560    -0.15100
H1221       H  0.55264587  0.44495191  0.18060263     0.11000
H1222       H  0.52358011  0.37062586  0.14495304     0.11000
H1223       H  0.48830857  0.37363564  0.18724529     0.11000
H1224       H  0.51780523  0.44764503  0.22454906     0.11000
C1225       C  0.61913614  0.32120614  0.05175901    -0.15100
C1226       C  0.59259196  0.32423811  0.05741153     0.07000
C1227       C  0.57747900  0.30219698  0.06507946    -0.15100
C1228       C  0.58894912  0.27760638  0.06816205    -0.15100
C1229       C  0.61549766  0.27460600  0.06227106     0.07000
C1230       C  0.63042442  0.29656704  0.05369523    -0.15100
H1231       H  0.63110746  0.33788123  0.04530792     0.11000
H1232       H  0.55693387  0.30409062  0.06927817     0.11000
H1233       H  0.57712029  0.26092762  0.07507003     0.11000
H1234       H  0.65099130  0.29479000  0.04957168     0.11000
C1235       C  0.47243075  0.33943918  0.05126187    -0.15100
C1236       C  0.47518096  0.36605633  0.05939851     0.07000
C1237       C  0.45339441  0.38065200  0.06854550    -0.15100
C1238       C  0.42908772  0.36900477  0.06854763    -0.15100
C1239       C  0.42627694  0.34241640  0.06036505     0.07000
C1240       C  0.44816618  0.32757038  0.05236711    -0.15100
H1241       H  0.48903285  0.32791735  0.04383194     0.11000
H1242       H  0.45504296  0.40129698  0.07433427     0.11000
H1243       H  0.41248936  0.38070229  0.07546148     0.11000
H1244       H  0.44641458  0.30696576  0.04639812     0.11000
C1245       C  0.61570453  0.59573815  0.31760956    -0.15100
C1246       C  0.62254137  0.60457602  0.28353361     0.07000
C1247       C  0.64314725  0.62226495  0.28048452    -0.15100
C1248       C  0.65476527  0.63299045  0.31097937    -0.15100
C1249       C  0.64621655  0.62601606  0.34513026     0.07000
C1250       C  0.62755861  0.60620910  0.34809216    -0.15100
H1251       H  0.59928139  0.58286906  0.32082287     0.11000
H1252       H  0.64817877  0.63013368  0.25469453     0.11000
H1253       H  0.66833965  0.64891436  0.30784345     0.11000
H1254       H  0.61986452  0.60119226  0.37395522     0.11000
C1255       C  0.46125305  0.56771918  0.31832326    -0.15100
C1256       C  0.45852019  0.59062979  0.33847631     0.07000
C1257       C  0.47493201  0.61177562  0.33236856    -0.15100
C1258       C  0.49565559  0.60903469  0.30936113    -0.15100
C1259       C  0.49977227  0.58534607  0.29139253     0.07000
C1260       C  0.48164207  0.56520258  0.29449047    -0.15100
H1261       H  0.44913954  0.55091149  0.32364837     0.11000
H1262       H  0.47355121  0.62927153  0.34844615     0.11000
H1263       H  0.50870136  0.62538384  0.30601284     0.11000
H1264       H  0.48393019  0.54718814  0.27979516     0.11000
C1265       C  0.50536868  0.60811761  0.06110871    -0.15100
C1266       C  0.50331448  0.58456124  0.04205497     0.07000
C1267       C  0.52376224  0.56675790  0.04353000    -0.15100
C1268       C  0.54449720  0.57124346  0.06660780    -0.15100
C1269       C  0.54534321  0.59386608  0.08777958     0.07000
C1270       C  0.52641876  0.61291854  0.08317943    -0.15100
H1271       H  0.49047768  0.62281399  0.05935788     0.11000
H1272       H  0.52313606  0.54891549  0.02812185     0.11000
H1273       H  0.55844502  0.55584125  0.07072442     0.11000
H1274       H  0.52618687  0.63006356  0.10006643     0.11000
C1275       C  0.54705077  0.51048591  0.13821946    -0.15100
C1276       C  0.57070079  0.51893235  0.15260295     0.07000
C1277       C  0.59353115  0.51033164  0.13632749    -0.15100
C1278       C  0.59273168  0.49299298  0.10738412    -0.15100
C1279       C  0.56907042  0.48465710  0.09290780     0.07000
C1280       C  0.54624560  0.49389015  0.10853504    -0.15100
H1281       H  0.52906721  0.51747442  0.14914894     0.11000
H1282       H  0.61204068  0.51713497  0.14596690     0.11000
H1283       H  0.61065631  0.48567231  0.09666204     0.11000
H1284       H  0.52768027  0.48723607  0.09890771     0.11000
C1285       C  0.88732558  0.60335436  0.18293448    -0.15100
C1286       C  0.87911647  0.60911971  0.21767080     0.07000
C1287       C  0.85649333  0.62363163  0.22211481    -0.15100
C1288       C  0.84415746  0.63480435  0.19262438    -0.15100
C1289       C  0.85409930  0.63151384  0.15808949     0.07000
C1290       C  0.87468910  0.61412943  0.15334207    -0.15100
H1291       H  0.90516801  0.59286984  0.17884988     0.11000
H1292       H  0.85025202  0.62908717  0.24855220     0.11000
H1293       H  0.82870274  0.64854894  0.19722123     0.11000
H1294       H  0.88327591  0.61178965  0.12731628     0.11000
C1295       C  0.00546319  0.61632282  0.19167517    -0.15100
C1296       C  0.00288549  0.59361933  0.21242166     0.07000
C1297       C  0.02228859  0.57466457  0.21086281    -0.15100
C1298       C  0.04242013  0.57722249  0.18630544    -0.15100
C1299       C  0.04391001  0.59917035  0.16389592     0.07000
C1300       C  0.02595089  0.61921703  0.16808934    -0.15100
H1301       H  0.99134803  0.63180120  0.19324014     0.11000
H1302       H  0.02120821  0.55737792  0.22732983     0.11000
H1303       H  0.05546944  0.56100123  0.18248553     0.11000
H1304       H  0.02604564  0.63578698  0.15019752     0.11000
C1305       C  0.97151869  0.62054057  0.42174969    -0.15100
C1306       C  0.95319722  0.60094274  0.41584214     0.07000
C1307       C  0.95422742  0.57804597  0.43643565    -0.15100
C1308       C  0.97473397  0.57376897  0.45991597    -0.15100
C1309       C  0.99474821  0.59208810  0.46237810     0.07000
C1310       C  0.99235777  0.61597703  0.44428878    -0.15100
H1311       H  0.97156382  0.63799713  0.40550206     0.11000
H1312       H  0.94073445  0.56228706  0.43142117     0.11000
H1313       H  0.97567227  0.55563984  0.47462066     0.11000
H1314       H  0.00690082  0.63104335  0.44706191     0.11000
C1315       C  0.85909499  0.37975801  0.02771203    -0.15100
C1316       C  0.87742246  0.39966570  0.03257612     0.07000
C1317       C  0.88138351  0.40946336  0.06706342    -0.15100
C1318       C  0.86892455  0.39805734  0.09641111    -0.15100
C1319       C  0.85270692  0.37629183  0.09186530     0.07000
C1320       C  0.84700217  0.36808482  0.05704052    -0.15100
H1321       H  0.85638029  0.37118519  0.50165119     0.11000
H1322       H  0.89612615  0.42407352  0.07172696     0.11000
H1323       H  0.87452465  0.40409777  0.12292605     0.11000
H1324       H  0.83546405  0.35070562  0.05278330     0.11000
C1325       C  0.02845166  0.39268142  0.08064010    -0.15100
C1326       C  0.04547362  0.41328919  0.08730076     0.07000
C1327       C  0.04305486  0.43653362  0.06772137    -0.15100
C1328       C  0.02229253  0.44002876  0.04450925    -0.15100
C1329       C  0.00347165  0.42051332  0.04133052     0.07000
C1330       C  0.00736444  0.39640441  0.05832924    -0.15100
H1331       H  0.02953447  0.37490249  0.09615988     0.11000
H1332       H  0.05558775  0.45297622  0.07337741     0.11000
H1333       H  0.02022124  0.45837553  0.03054332     0.11000
H1334       H  0.99379737  0.38050183  0.05490089     0.11000
C1335       C  0.95826530  0.43527457  0.31791537    -0.15100
C1336       C  0.95633646  0.41303546  0.33965165     0.07000
C1337       C  0.97378610  0.39262281  0.33510836    -0.15100
C1338       C  0.99428359  0.39533849  0.31163528    -0.15100
C1339       C  0.99727658  0.41822464  0.29141126     0.07000
C1340       C  0.97840889  0.43768501  0.29348191    -0.15100
H1341       H  0.94553749  0.45170781  0.32213102     0.11000
H1342       H  0.97326568  0.37581841  0.35258215     0.11000
H1343       H  0.00799289  0.37951935  0.30960977     0.11000
H1344       H  0.97985115  0.45513000  0.27737427     0.11000
C1345       C  0.92171925  0.30568863  0.44273343    -0.15100
C1346       C  0.90623119  0.32810274  0.44366374     0.07000
C1347       C  0.87931323  0.32526974  0.44480379    -0.15100
C1348       C  0.86807343  0.30050315  0.44456525    -0.15100
C1349       C  0.88353313  0.27819622  0.44229384     0.07000
C1350       C  0.91042094  0.28091458  0.44146018    -0.15100
H1351       H  0.94252055  0.30734834  0.44236470     0.11000
H1352       H  0.86693913  0.34221072  0.44614934     0.11000
H1353       H  0.84726475  0.29880215  0.44460061     0.11000
H1354       H  0.92262271  0.26387348  0.43944201     0.11000
C1355       C  0.95135440  0.50151499  0.39668878    -0.15100
C1356       C  0.92827121  0.48922415  0.40695435     0.07000
C1357       C  0.90564701  0.49541941  0.38798476    -0.15100
C1358       C  0.90607143  0.51356447  0.35992532    -0.15100
C1359       C  0.92932534  0.52510651  0.34892903     0.07000
C1360       C  0.95192024  0.51890739  0.36785160    -0.15100
H1361       H  0.96927503  0.49681083  0.40995972     0.11000
H1362       H  0.88762834  0.48589588  0.39455519     0.11000
H1363       H  0.88819850  0.51862385  0.34677567     0.11000
H1364       H  0.96999590  0.52825633  0.36113463     0.11000
C1365       C  0.02831905  0.34715970  0.45157841    -0.15100
C1366       C  0.02475081  0.37364397  0.44345873     0.07000
C1367       C  0.04615960  0.38890855  0.43398222    -0.15100
C1368       C  0.07076849  0.37793494  0.43301511    -0.15100
C1369       C  0.07427359  0.35136007  0.44057076     0.07000
C1370       C  0.05281585  0.33600671  0.44956468    -0.15100
H1371       H  0.01211781  0.33507527  0.45930038     0.11000
H1372       H  0.04394844  0.40948449  0.42823009     0.11000
H1373       H  0.08697673  0.39007498  0.42553393     0.11000
H1374       H  0.05503915  0.31541447  0.45519791     0.11000
C1375       C  0.05156132  0.67894860  0.31152185    -0.15100
C1376       C  0.07280584  0.66221776  0.31489387     0.07000
C1377       C  0.06879879  0.63521521  0.31732791    -0.15100
C1378       C  0.04396689  0.62504437  0.31665247    -0.15100
C1379       C  0.02276581  0.64162730  0.31260979     0.07000
C1380       C  0.02662816  0.66862906  0.30969948    -0.15100
H1381       H  0.05428911  0.69987122  0.30990000     0.11000
H1382       H  0.08486572  0.62196576  0.32043400     0.11000
H1383       H  0.04135361  0.60409167  0.31817623     0.11000
H1384       H  0.01041022  0.68162191  0.30615221     0.11000
C1385       C  0.12450452  0.61023333  0.40204552    -0.15100
C1386       C  0.14391153  0.62921767  0.40574591     0.07000
C1387       C  0.15314686  0.63480792  0.44010357    -0.15100
C1388       C  0.14164259  0.62346966  0.47021638    -0.15100
C1389       C  0.12037639  0.60664420  0.46660206     0.07000
C1390       C  0.11274172  0.59921181  0.43215092    -0.15100
H1391       H  0.11625573  0.60634164  0.37609817     0.11000
H1392       H  0.16732714  0.65011609  0.44386733     0.11000
H1393       H  0.14725143  0.63039750  0.49632794     0.11000
H1394       H  0.09577931  0.58712417  0.42853727     0.11000
C1395       C  0.09444959  0.78161783  0.32528077    -0.15100
C1396       C  0.12020892  0.77773622  0.31521691     0.07000
C1397       C  0.13453204  0.79879058  0.30186261    -0.15100
C1398       C  0.12337021  0.82344184  0.29907211    -0.15100
C1399       C  0.09752633  0.82721202  0.30865122     0.07000
C1400       C  0.08305485  0.80611140  0.32146202    -0.15100
H1401       H  0.08310878  0.76565546  0.33588098     0.11000
H1402       H  0.15451899  0.79631662  0.29439853     0.11000
H1403       H  0.13476218  0.83946761  0.28875369     0.11000
H1404       H  0.06307418  0.80867872  0.32889520     0.11000
C1405       C  0.34742831  0.62970377  0.06047985    -0.15100
C1406       C  0.35663516  0.62287408  0.09437074     0.07000
C1407       C  0.37626741  0.60419254  0.09691132    -0.15100
C1408       C  0.38831931  0.59467257  0.06622766    -0.15100
C1409       C  0.38073611  0.60340221  0.03241339     0.07000
C1410       C  0.35930818  0.61993570  0.02971213    -0.15100
H1411       H  0.33303574  0.64483933  0.05779077     0.11000
H1412       H  0.38435134  0.59935218  0.12262483     0.11000
H1413       H  0.40533099  0.58265056  0.06906837     0.11000
H1414       H  0.35370390  0.62768115  0.00406577     0.11000
C1415       C  0.42954663  0.62594525  0.18302351    -0.15100
C1416       C  0.42416826  0.65130007  0.19488077     0.07000
C1417       C  0.44449020  0.66711402  0.20707187    -0.15100
C1418       C  0.46973211  0.65753450  0.20790700    -0.15100
C1419       C  0.47519947  0.63232345  0.19531132     0.07000
C1420       C  0.45483908  0.61666588  0.18280530    -0.15100
H1421       H  0.41426812  0.61358575  0.17285354     0.11000
H1422       H  0.44080813  0.68686111  0.21593747     0.11000
H1423       H  0.48500633  0.66989087  0.21811513     0.11000
H1424       H  0.45839624  0.59699968  0.17351959     0.11000
C1425       C  0.25611206  0.65098817  0.23482346    -0.15100
C1426       C  0.26489922  0.67365468  0.21747985     0.07000
C1427       C  0.25648057  0.69797446  0.23034802    -0.15100
C1428       C  0.24028884  0.69961375  0.26007056    -0.15100
C1429       C  0.23131553  0.67697571  0.27719347     0.07000
C1430       C  0.23906837  0.65261419  0.26374309    -0.15100
H1431       H  0.26271579  0.63198299  0.22624435     0.11000
H1432       H  0.26339886  0.71590349  0.21848404     0.11000
H1433       H  0.23394278  0.71867484  0.26879315     0.11000
H1434       H  0.23172866  0.63479891  0.27547305     0.11000
C1435       C  0.40550225  0.77290957  0.18434812    -0.15100
C1436       C  0.37880874  0.76982800  0.18857736     0.07000
C1437       C  0.36340838  0.79199739  0.19344920    -0.15100
C1438       C  0.37452477  0.81691496  0.19346807    -0.15100
C1439       C  0.40127767  0.81997993  0.18941063     0.07000
C1440       C  0.41668690  0.79772312  0.18531513    -0.15100
H1441       H  0.41769520  0.75607274  0.18017758     0.11000
H1442       H  0.34271116  0.79009035  0.19606046     0.11000
H1443       H  0.36227957  0.83375450  0.19727413     0.11000
H1444       H  0.43737481  0.79954832  0.18249868     0.11000
C1445       C  0.05691252  0.83509720  0.04148431    -0.15100
C1446       C  0.07689610  0.84933726  0.05743418     0.07000
C1447       C  0.07176061  0.87374193  0.07257629    -0.15100
C1448       C  0.04689740  0.88387519  0.07190098    -0.15100
C1449       C  0.02692405  0.87002235  0.05518317     0.07000
C1450       C  0.03213845  0.84557946  0.03981452    -0.15100
H1451       H  0.06056121  0.81605463  0.03008696     0.11000
H1452       H  0.08689965  0.88470079  0.08562807     0.11000
H1453       H  0.04346181  0.90285654  0.08360067     0.11000
H1454       H  0.01707814  0.83461315  0.02650272     0.11000
C1455       C  0.12708525  0.89765939  0.14869424    -0.15100
C1456       C  0.14593541  0.87829168  0.15296382     0.07000
C1457       C  0.15465890  0.87258871  0.18743861    -0.15100
C1458       C  0.14295106  0.88405802  0.21717690    -0.15100
C1459       C  0.12194140  0.90096900  0.21296392     0.07000
C1460       C  0.11492729  0.90864630  0.17843927    -0.15100
H1461       H  0.11963069  0.90198611  0.12248036     0.11000
H1462       H  0.16851445  0.85711642  0.19153191     0.11000
H1463       H  0.14814470  0.87716042  0.24343570     0.11000
H1464       H  0.09826958  0.92098543  0.17442553     0.11000
C1465       C  0.14140995  0.74960711  0.18477223    -0.15100
C1466       C  0.16408357  0.75187655  0.16454251     0.07000
C1467       C  0.18211578  0.73154120  0.16568410    -0.15100
C1468       C  0.17870200  0.71071838  0.18928044    -0.15100
C1469       C  0.15690721  0.70956947  0.21138657     0.07000
C1470       C  0.13772915  0.72848978  0.20760542    -0.15100
H1471       H  0.12658728  0.76439607  0.18334696     0.11000
H1472       H  0.19931559  0.73230149  0.14946894     0.11000
H1473       H  0.19420339  0.69682737  0.19273003     0.11000
H1474       H  0.12124386  0.72854543  0.22524573     0.11000
C1475       C  0.18424394  0.79519894  0.43965384    -0.15100
C1476       C  0.16233704  0.79669216  0.46148502     0.07000
C1477       C  0.14290301  0.77793832  0.45790238    -0.15100
C1478       C  0.14624533  0.75678681  0.43519938    -0.15100
C1479       C  0.16875802  0.75439164  0.41471753     0.07000
C1480       C  0.18720959  0.77442349  0.41585450    -0.15100
H1481       H  0.19997162  0.80891070  0.44318604     0.11000
H1482       H  0.12640212  0.77809587  0.47552720     0.11000
H1483       H  0.13117812  0.74215315  0.43389821     0.11000
H1484       H  0.20432528  0.77343505  0.39950033     0.11000
C1485       C  0.09261407  0.72877360  0.06068635    -0.15100
C1486       C  0.11957277  0.73072677  0.06043350     0.07000
C1487       C  0.13446265  0.70803531  0.05838610    -0.15100
C1488       C  0.12255977  0.68360588  0.05751525    -0.15100
C1489       C  0.09555873  0.68153736  0.05786206     0.07000
C1490       C  0.08066432  0.70434799  0.05883474    -0.15100
H1491       H  0.08085968  0.74614481  0.06254406     0.11000
H1492       H  0.15530551  0.70917832  0.05882124     0.11000
H1493       H  0.13448375  0.66633056  0.05619518     0.11000
H1494       H  0.05982464  0.70326248  0.05871909     0.11000
C1495       C  0.43718610  0.85782589  0.40351720    -0.15100
C1496       C  0.42396791  0.84619399  0.43201217     0.07000
C1497       C  0.43621326  0.84405318  0.46510550    -0.15100
C1498       C  0.46144674  0.85324283  0.46949532    -0.15100
C1499       C  0.47452436  0.86517959  0.44103999     0.07000
C1500       C  0.46210678  0.86746405  0.40807505    -0.15100
H1501       H  0.42809732  0.85968137  0.37768900     0.11000
H1502       H  0.42646750  0.83488929  0.98728729     0.11000
H1503       H  0.47049243  0.85161595  0.99536988     0.11000
H1504       H  0.47164147  0.87677945  0.38583773     0.11000
C1505       C  0.34221594  0.86604363  0.30380289    -0.15100
C1506       C  0.35102890  0.87031412  0.33874203     0.07000
C1507       C  0.36999213  0.88948647  0.34445964    -0.15100
C1508       C  0.38258759  0.90112261  0.31552107    -0.15100
C1509       C  0.37581148  0.89445195  0.28049330     0.07000
C1510       C  0.35439314  0.87817960  0.27492905    -0.15100
H1511       H  0.32793655  0.85106468  0.29855420     0.11000
H1512       H  0.37761284  0.89272739  0.37092571     0.11000
H1513       H  0.39950217  0.91302420  0.32047323     0.11000
H1514       H  0.34926776  0.87215599  0.24822097     0.11000
C1515       C  0.35323556  0.72743058  0.32555436    -0.15100
C1516       C  0.32960643  0.73866277  0.33615368     0.07000
C1517       C  0.30664114  0.72570117  0.32796412    -0.15100
C1518       C  0.30734845  0.70408300  0.30513926    -0.15100
C1519       C  0.33096600  0.69541963  0.29077447     0.07000
C1520       C  0.35390117  0.70561214  0.30387931    -0.15100
H1521       H  0.37153179  0.73614725  0.33284170     0.11000
H1522       H  0.28831929  0.73331339  0.33685511     0.11000
H1523       H  0.28937138  0.69620171  0.29518984     0.11000
H1524       H  0.37224406  0.69941903  0.29308670     0.11000
C1525       C  0.32192641  0.78248672  0.05185454    -0.15100
C1526       C  0.34490713  0.78253307  0.03220242     0.07000
C1527       C  0.36449786  0.76506351  0.04089650    -0.15100
C1528       C  0.36028141  0.74597970  0.06625451    -0.15100
C1529       C  0.33654743  0.74430548  0.08400304     0.07000
C1530       C  0.31783858  0.76353019  0.07807691    -0.15100
H1531       H  0.30642276  0.79560042  0.54480951     0.11000
H1532       H  0.38210206  0.76451353  0.02545606     0.11000
H1533       H  0.37557665  0.73216711  0.07148099     0.11000
H1534       H  0.29977381  0.76313276  0.09241517     0.11000
C1535       C  0.26232955  0.84311772  0.48375979    -0.15100
C1536       C  0.27201623  0.81827900  0.47519452     0.07000
C1537       C  0.26360958  0.79690373  0.99583193    -0.15100
C1538       C  0.24636781  0.80007917  0.02398219    -0.15100
C1539       C  0.23598152  0.82461783  0.03196797     0.07000
C1540       C  0.24409271  0.84614972  0.51130264    -0.15100
H1541       H  0.26870475  0.86010680  0.46909469     0.11000
H1542       H  0.27090005  0.77746589  0.99088886     0.11000
H1543       H  0.24013256  0.78289234  0.03835256     0.11000
H1544       H  0.23594404  0.86525533  0.51605693     0.11000
C1545       C  0.41953371  0.72501440  0.42809669    -0.15100
C1546       C  0.39527990  0.72714722  0.41188419     0.07000
C1547       C  0.38207088  0.70426097  0.40203346    -0.15100
C1548       C  0.39192517  0.67981907  0.40982675    -0.15100
C1549       C  0.41524583  0.67738389  0.42817983     0.07000
C1550       C  0.42946559  0.70017708  0.43632006    -0.15100
H1551       H  0.42992073  0.74234396  0.43634414     0.11000
H1552       H  0.36317802  0.70520609  0.38990707     0.11000
H1553       H  0.38059269  0.66280470  0.40277562     0.11000
H1554       H  0.44766541  0.69884235  0.45029962     0.11000
C1555       C  0.56621189  0.86863679  0.17574909    -0.15100
C1556       C  0.57112206  0.84285567  0.18595666     0.07000
C1557       C  0.55067290  0.82680194  0.19686538    -0.15100
C1558       C  0.52566386  0.83683000  0.19871582    -0.15100
C1559       C  0.52078331  0.86265770  0.18827298     0.07000
C1560       C  0.54121481  0.87833591  0.17636426    -0.15100
H1561       H  0.58169992  0.88116574  0.16672498     0.11000
H1562       H  0.55415245  0.80674684  0.20449718     0.11000
H1563       H  0.51018815  0.82450508  0.20831567     0.11000
H1564       H  0.53800934  0.89843672  0.16870552     0.11000
C1565       C  0.63642864  0.77534720  0.29284926    -0.15100
C1566       C  0.65607826  0.79378621  0.28838441     0.07000
C1567       C  0.67838120  0.79203414  0.30953455    -0.15100
C1568       C  0.68170593  0.77117712  0.33301130    -0.15100
C1569       C  0.66300863  0.75144551  0.33506215     0.07000
C1570       C  0.63995220  0.75422530  0.31569454    -0.15100
H1571       H  0.61954138  0.77572696  0.27587544     0.11000
H1572       H  0.69422936  0.80550706  0.30543781     0.11000
H1573       H  0.69926963  0.76993894  0.34848848     0.11000
H1574       H  0.62468394  0.73986567  0.31787468     0.11000
C1575       C  0.64414114  0.74747466  0.06392332    -0.15100
C1576       C  0.66672002  0.75089902  0.08416439     0.07000
C1577       C  0.68581550  0.73161029  0.08289093    -0.15100
C1578       C  0.68326286  0.71048022  0.05951657    -0.15100
C1579       C  0.66120186  0.70783899  0.03801700     0.07000
C1580       C  0.64128355  0.72599148  0.04147385    -0.15100
H1581       H  0.62862073  0.76151144  0.06532759     0.11000
H1582       H  0.70305598  0.73338381  0.09897343     0.11000
H1583       H  0.69939025  0.69735101  0.05605461     0.11000
H1584       H  0.62464318  0.72504154  0.02406429     0.11000
C1585       C  0.65266686  0.87182243  0.06223887    -0.15100
C1586       C  0.64281509  0.87671384  0.09638564     0.07000
C1587       C  0.62294849  0.89507202  0.09989415    -0.15100
C1588       C  0.61101493  0.90568742  0.06967383    -0.15100
C1589       C  0.61906522  0.89858566  0.03533989     0.07000
C1590       C  0.64104203  0.88284800  0.03198901    -0.15100
H1591       H  0.66737916  0.85711733  0.05864793     0.11000
H1592       H  0.61447279  0.89862755  0.12571309     0.11000
H1593       H  0.59366130  0.91710427  0.07306620     0.11000
H1594       H  0.64713160  0.87630772  0.50591378     0.11000
C1595       C  0.58070729  0.69898919  0.17726760    -0.15100
C1596       C  0.59529041  0.67795077  0.18979031     0.07000
C1597       C  0.62090230  0.68198212  0.20044336    -0.15100
C1598       C  0.63192612  0.70674039  0.19832795    -0.15100
C1599       C  0.61768692  0.72764603  0.18460956     0.07000
C1600       C  0.59198054  0.72364162  0.17414074    -0.15100
H1601       H  0.56082455  0.69621443  0.16930357     0.11000
H1602       H  0.63227083  0.66601631  0.21083409     0.11000
H1603       H  0.65181873  0.70936013  0.20634896     0.11000
H1604       H  0.58067148  0.73955670  0.16348057     0.11000
C1605       C  0.94607248  0.83495048  0.29304251    -0.15100
C1606       C  0.92545120  0.85143780  0.30180599     0.07000
C1607       C  0.93059395  0.87727466  0.31188767    -0.15100
C1608       C  0.95590352  0.88646982  0.31344968    -0.15100
C1609       C  0.97652509  0.87020010  0.30409501     0.07000
C1610       C  0.97139503  0.84440538  0.29354281    -0.15100
H1611       H  0.94256218  0.81478882  0.28581807     0.11000
H1612       H  0.91507246  0.89014312  0.31964037     0.11000
H1613       H  0.95929314  0.90658579  0.32100820     0.11000
H1614       H  0.98695907  0.83159639  0.28577291     0.11000
C1615       C  0.87750966  0.90061098  0.39951637    -0.15100
C1616       C  0.85803691  0.88160050  0.40124506     0.07000
C1617       C  0.84892997  0.87383179  0.43476909    -0.15100
C1618       C  0.86082276  0.88295568  0.46592665    -0.15100
C1619       C  0.88204434  0.89991752  0.46397282     0.07000
C1620       C  0.88950032  0.90960858  0.43063188    -0.15100
H1621       H  0.88557425  0.90608114  0.37403785     0.11000
H1622       H  0.83472916  0.85836800  0.43676036     0.11000
H1623       H  0.85536987  0.87447566  0.49119784     0.11000
H1624       H  0.90638166  0.92197399  0.42840595     0.11000
C1625       C  0.80612185  0.79728145  0.19411877    -0.15100
C1626       C  0.82993864  0.80695883  0.20692862     0.07000
C1627       C  0.85270731  0.79721623  0.19312182    -0.15100
C1628       C  0.85195225  0.77466316  0.17300625    -0.15100
C1629       C  0.82831525  0.76248207  0.16405432     0.07000
C1630       C  0.80528931  0.77501548  0.17250071    -0.15100
H1631       H  0.78824756  0.80481811  0.20468385     0.11000
H1632       H  0.87119119  0.80426565  0.20263028     0.11000
H1633       H  0.87026998  0.76622299  0.16562074     0.11000
H1634       H  0.78693226  0.76661174  0.16487786     0.11000
C1635       C  0.85999568  0.76451983  0.43792296    -0.15100
C1636       C  0.83774003  0.76298433  0.41667693     0.07000
C1637       C  0.82112278  0.74149186  0.42042695    -0.15100
C1638       C  0.82578320  0.72294953  0.44700146    -0.15100
C1639       C  0.84729673  0.72560412  0.46937943     0.07000
C1640       C  0.86482549  0.74590523  0.46369087    -0.15100
H1641       H  0.87377615  0.78026478  0.43484799     0.11000
H1642       H  0.80427558  0.73948231  0.40362228     0.11000
H1643       H  0.81167817  0.70776032  0.45179848     0.11000
H1644       H  0.88116206  0.74859803  0.48133382     0.11000
C1645       C  0.75472766  0.80660764  0.27042009    -0.15100
C1646       C  0.76528342  0.83077300  0.28076140     0.07000
C1647       C  0.75784620  0.85316757  0.26161867    -0.15100
C1648       C  0.74009755  0.85147715  0.23341536    -0.15100
C1649       C  0.73024037  0.82720273  0.22245998     0.07000
C1650       C  0.73776837  0.80481611  0.24141238    -0.15100
H1651       H  0.76051926  0.78882510  0.28369600     0.11000
H1652       H  0.76609789  0.87199771  0.26816891     0.11000
H1653       H  0.73394895  0.86916901  0.22020810     0.11000
H1654       H  0.72976289  0.78592307  0.23462401     0.11000
C1655       C  0.91771307  0.70697684  0.31658255    -0.15100
C1656       C  0.90268519  0.68468561  0.31006957     0.07000
C1657       C  0.87620136  0.68751616  0.30332922    -0.15100
C1658       C  0.86490134  0.71225406  0.30328478    -0.15100
C1659       C  0.87981561  0.73445010  0.31079273     0.07000
C1660       C  0.90630173  0.73160617  0.31745423    -0.15100
H1661       H  0.93821306  0.70529765  0.32145140     0.11000
H1662       H  0.86432402  0.67062118  0.29754994     0.11000
H1663       H  0.84438593  0.71395819  0.29857455     0.11000
H1664       H  0.91814925  0.74847355  0.32351870     0.11000
O1665       O  0.84883331  0.80202610  0.88858799    -0.83600
C1666       C  0.83142490  0.81467563  0.74402603     0.95800
O1667       O  0.81911199  0.80005479  0.76490339    -0.72700
O1668       O  0.84772150  0.76627353  0.79856124    -0.76300
Al1669     Al  0.82249614  0.79106712  0.81299037     1.49000
C1670       C  0.86754763  0.76000150  0.81595042     0.91000
O1671       O  0.89650880  0.81819016  0.81748487    -0.82500
O1672       O  0.83906333  0.86504371  0.84709776    -0.76100
Al1673     Al  0.87127843  0.81041405  0.85175652     1.90100
O1674       O  0.87971403  0.85546062  0.80166778    -0.75100
O1675       O  0.80622746  0.84725669  0.79566137    -0.75000
O1676       O  0.84628903  0.83268219  0.75525053    -0.80600
O1677       O  0.79387018  0.81259438  0.82478185    -0.78800
O1678       O  0.84551118  0.81624022  0.82208894    -1.15000
O1679       O  0.82254373  0.77604288  0.85991348    -0.74200
C1680       C  0.83501223  0.78190029  0.88768121     0.96500
C1681       C  0.89921665  0.84096125  0.80584607     0.92900
Al1682     Al  0.84298220  0.84767384  0.80176407     1.55600
O1683       O  0.87653320  0.77494919  0.83943752    -0.78800
C1684       C  0.78865188  0.83135192  0.80405739     0.97100
C1685       C  0.85577793  0.86298320  0.87161533     0.92000
O1686       O  0.87191240  0.84461583  0.87149212    -0.84100
O1687       O  0.65381342  0.79192098  0.60609674    -0.83600
C1688       C  0.65892352  0.80459859  0.75284313     0.95800
O1689       O  0.67539402  0.79312119  0.73416113    -0.72700
O1690       O  0.64943178  0.75946320  0.69714128    -0.76300
Al1691     Al  0.67519508  0.78420670  0.68578848     1.49000
C1692       C  0.63029764  0.75288021  0.67850155     0.91000
O1693       O  0.60071677  0.81062539  0.66871419    -0.82500
O1694       O  0.65891574  0.85872515  0.65167370    -0.76100
Al1695     Al  0.62906434  0.80208227  0.63962352     1.90100
O1696       O  0.61630950  0.84683290  0.69026289    -0.75100
O1697       O  0.68846987  0.83998062  0.70650879    -0.75000
O1698       O  0.64484017  0.82256968  0.74010065    -0.80600
O1699       O  0.70417789  0.80645425  0.67772138    -0.78800
O1700       O  0.65234222  0.80863379  0.67308437    -1.15000
O1701       O  0.67880690  0.76839443  0.63995337    -0.74200
C1702       C  0.66774641  0.77217524  0.61056644     0.96500
C1703       C  0.59732794  0.83264644  0.68230843     0.92900
Al1704     Al  0.65229213  0.83955243  0.69520226     1.55600
O1705       O  0.62247625  0.76706484  0.65339648    -0.78800
C1706       C  0.70736446  0.82557606  0.69876097     0.97100
C1707       C  0.64507522  0.85616180  0.62386827     0.92000
O1708       O  0.63113429  0.83613275  0.61923294    -0.84100
O1709       O  0.35076511  0.82621171  0.85468399    -0.83600
C1710       C  0.34420277  0.79120257  0.49553347     0.95800
O1711       O  0.34253368  0.81498615  0.98701158    -0.72700
O1712       O  0.38121336  0.83451187  0.94955716    -0.76300
Al1713     Al  0.34482410  0.83173625  0.94110468     1.49000
C1714       C  0.39825477  0.83490517  0.92576654     0.91000
O1715       O  0.39051230  0.77362631  0.90150976    -0.82500
O1716       O  0.31536481  0.76877709  0.88131986    -0.76100
Al1717     Al  0.36960101  0.80065203  0.87947289     1.90100
O1718       O  0.35694505  0.74984593  0.91651769    -0.75100
O1719       O  0.30048889  0.79088318  0.94388298    -0.75000
O1720       O  0.34372625  0.77335778  0.97282580    -0.80600
O1721       O  0.30773206  0.83280831  0.93866292    -0.78800
O1722       O  0.34791573  0.80208519  0.91605574    -1.15000
O1723       O  0.34697375  0.85430519  0.89880697    -0.74200
C1724       C  0.34806384  0.84933513  0.86558353     0.96500
C1725       C  0.38069976  0.75180164  0.91026069     0.92900
Al1726     Al  0.33036161  0.77344447  0.92750742     1.55600
O1727       O  0.39357760  0.82572144  0.89557389    -0.78800
C1728       C  0.29378491  0.81413133  0.94967736     0.97100
C1729       C  0.33093699  0.76314336  0.85664214     0.92000
O1730       O  0.35176935  0.77538416  0.85381235    -0.84100
O1731       O  0.13297838  0.83892413  0.62751862    -0.83600
C1732       C  0.16529888  0.80767242  0.99686538     0.95800
O1733       O  0.15167132  0.82625365  0.50878945    -0.72700
O1734       O  0.12234283  0.85157639  0.55681063    -0.76300
Al1735     Al  0.15811458  0.84235373  0.55439372     1.49000
C1736       C  0.10249948  0.83793655  0.56187311     0.91000
O1737       O  0.12315882  0.77063853  0.59055202    -0.82500
O1738       O  0.17923875  0.76993906  0.61057446    -0.76100
Al1739     Al  0.13041133  0.80512423  0.60597905     1.90100
O1740       O  0.15268751  0.76168428  0.55069995    -0.75100
O1741       O  0.20720581  0.80761422  0.57637055    -0.75000
O1742       O  0.18082322  0.79542296  0.51641358    -0.80600
O1743       O  0.19477705  0.84130459  0.54543291    -0.78800
O1744       O  0.15572306  0.81107154  0.57551561    -1.15000
O1745       O  0.16383212  0.86029046  0.59901471    -0.74200
C1746       C  0.14829724  0.85816330  0.62506434     0.96500
C1747       C  0.13224075  0.75589463  0.56694718     0.92900
Al1748     Al  0.17832466  0.78604470  0.56475212     1.55600
O1749       O  0.10441273  0.81526414  0.57385031    -0.78800
C1750       C  0.21247060  0.82586821  0.55477910     0.97100
C1751       C  0.16644246  0.77340974  0.63861776     0.92000
O1752       O  0.15247032  0.79324952  0.64202839    -0.84100
O1753       O  0.34757760  0.70423735  0.60916672    -0.83600
C1754       C  0.33148425  0.68804584  0.75347661     0.95800
O1755       O  0.31880174  0.70289668  0.73337774    -0.72700
O1756       O  0.34701464  0.73747796  0.70038038    -0.76300
Al1757     Al  0.32168697  0.71283259  0.68547752     1.49000
C1758       C  0.36684135  0.74404500  0.68322811     0.91000
O1759       O  0.39575107  0.68503557  0.67868598    -0.82500
O1760       O  0.33741035  0.63929910  0.64838721    -0.76100
Al1761     Al  0.37010346  0.69424177  0.64534959     1.90100
O1762       O  0.37835878  0.64779369  0.69364523    -0.75100
O1763       O  0.30503472  0.65638107  0.70100100    -0.75000
O1764       O  0.34586914  0.67010142  0.74127594    -0.80600
O1765       O  0.29297422  0.69154581  0.67303851    -0.78800
O1766       O  0.34449755  0.68782633  0.67503884    -1.15000
O1767       O  0.32120737  0.72892738  0.63941500    -0.74200
C1768       C  0.33370130  0.72420034  0.61143179     0.96500
C1769       C  0.39808187  0.66210651  0.68993130     0.92900
Al1770     Al  0.34181255  0.65594145  0.69425452     1.55600
O1771       O  0.37599796  0.72930624  0.65969633    -0.78800
C1772       C  0.28765970  0.67264976  0.69342594     0.97100
C1773       C  0.35390974  0.64179964  0.62369226     0.92000
O1774       O  0.36975378  0.66055875  0.62376139    -0.84100
O1775       O  0.15669121  0.71297716  0.89339773    -0.83600
C1776       C  0.16038336  0.69918012  0.74716568     0.95800
O1777       O  0.17691419  0.71111208  0.76542534    -0.72700
O1778       O  0.15131810  0.74541949  0.80202940    -0.76300
Al1779     Al  0.17706562  0.72064165  0.81363356     1.49000
C1780       C  0.13268146  0.75238197  0.82123943     0.91000
O1781       O  0.10260717  0.69470052  0.83194859    -0.82500
O1782       O  0.16030303  0.64643584  0.85009677    -0.76100
Al1783     Al  0.13125111  0.70324645  0.86064854     1.90100
O1784       O  0.11790445  0.65827064  0.81090643    -0.75100
O1785       O  0.18985463  0.66432306  0.79475487    -0.75000
O1786       O  0.14646222  0.68125540  0.76048520    -0.80600
O1787       O  0.20596848  0.69848370  0.82195749    -0.78800
O1788       O  0.15416507  0.69630398  0.82706027    -1.15000
O1789       O  0.18103683  0.73695138  0.85920054    -0.74200
C1790       C  0.17025176  0.73300358  0.88871062     0.96500
C1791       C  0.09904376  0.67253979  0.81866709     0.92900
Al1792     Al  0.15382526  0.66505720  0.80592561     1.55600
O1793       O  0.12510360  0.73836363  0.84667863    -0.78800
C1794       C  0.20884477  0.67896057  0.80156763     0.97100
C1795       C  0.14638687  0.64933032  0.87768946     0.92000
O1796       O  0.13264025  0.66943532  0.88164828    -0.84100
O1797       O  0.91731528  0.38770264  0.50914599    -0.83600
C1798       C  0.94668637  0.41643601  0.87554340     0.95800
O1799       O  0.92865102  0.40276173  0.88879267    -0.72700
O1800       O  0.90470992  0.37417344  0.93899235    -0.76300
Al1801     Al  0.91332148  0.41041799  0.93425116     1.49000
C1802       C  0.91789357  0.35429855  0.94630932     0.91000
O1803       O  0.98482558  0.37753497  0.97265935    -0.82500
O1804       O  0.98512320  0.43499860  0.98758311    -0.76100
Al1805     Al  0.95055999  0.38496776  0.98757918     1.90100
O1806       O  0.99313646  0.40555930  0.93011876    -0.75100
O1807       O  0.94798947  0.46172868  0.95123288    -0.75000
O1808       O  0.95944270  0.43238642  0.89394765    -0.80600
O1809       O  0.91400927  0.44711869  0.92318191    -0.78800
O1810       O  0.94437186  0.40919740  0.95502439    -1.15000
O1811       O  0.89573384  0.41736313  0.97862948    -0.74200
C1812       C  0.89796766  0.40249332  0.00558739     0.96500
C1813       C  0.99938389  0.38595758  0.94843770     0.92900
Al1814     Al  0.96900817  0.43192539  0.94214002     1.55600
O1815       O  0.94036358  0.35688794  0.95813068    -0.78800
C1816       C  0.92914154  0.46573392  0.93046454     0.97100
C1817       C  0.98177683  0.42298840  0.51641489     0.92000
O1818       O  0.96198815  0.40926653  0.52118191    -0.84100
O1819       O  0.91661633  0.62507533  0.74435541    -0.83600
C1820       C  0.94461446  0.59814050  0.87920125     0.95800
O1821       O  0.92626613  0.61110571  0.86543822    -0.72700
O1822       O  0.90196967  0.63845963  0.81365037    -0.76300
Al1823     Al  0.91196341  0.60259175  0.81928923     1.49000
C1824       C  0.91485131  0.65879456  0.80742450     0.91000
O1825       O  0.98290103  0.63838224  0.78331245    -0.82500
O1826       O  0.98497552  0.58036396  0.76766730    -0.76100
Al1827     Al  0.94922420  0.62953905  0.76729320     1.90100
O1828       O  0.99133138  0.61008906  0.82543184    -0.75100
O1829       O  0.94829888  0.55256568  0.80410303    -0.75000
O1830       O  0.95837002  0.58301152  0.86101755    -0.80600
O1831       O  0.91362591  0.56606296  0.83114699    -0.78800
O1832       O  0.94329176  0.60496638  0.79950033    -1.15000
O1833       O  0.89570749  0.59446447  0.77427329    -0.74200
C1834       C  0.89822206  0.60887335  0.74689421     0.96500
C1835       C  0.99732517  0.62993442  0.80761453     0.92900
Al1836     Al  0.96832070  0.58317313  0.81306314     1.55600
O1837       O  0.93761718  0.65698952  0.79668081    -0.78800
C1838       C  0.92944115  0.54804362  0.82457779     0.97100
C1839       C  0.98175634  0.59218274  0.73858297     0.92000
O1840       O  0.96217598  0.60608554  0.73368562    -0.84100
O1841       O  0.58454544  0.61956568  0.75720886    -0.83600
C1842       C  0.55454807  0.59094439  0.62400813     0.95800
O1843       O  0.57313549  0.60396764  0.63723919    -0.72700
O1844       O  0.59715918  0.63205908  0.68814912    -0.76300
Al1845     Al  0.58801625  0.59602991  0.68307535     1.49000
C1846       C  0.58372573  0.65204025  0.69379421     0.91000
O1847       O  0.51646474  0.62991540  0.72195595    -0.82500
O1848       O  0.51684257  0.57223136  0.73648305    -0.76100
Al1849     Al  0.55111217  0.62238446  0.73575681     1.90100
O1850       O  0.50771949  0.60201497  0.67955172    -0.75100
O1851       O  0.55259831  0.54553456  0.69884294    -0.75000
O1852       O  0.54093137  0.57583451  0.64249893    -0.80600
O1853       O  0.58685207  0.55955818  0.67135794    -0.78800
O1854       O  0.55687599  0.59787534  0.70345424    -1.15000
O1855       O  0.60499928  0.58850031  0.72790210    -0.74200
C1856       C  0.60302718  0.60357444  0.75471706     0.96500
C1857       C  0.50136912  0.62123954  0.69846114     0.92900
Al1858     Al  0.53193908  0.57559063  0.69069153     1.55600
O1859       O  0.56113540  0.64985704  0.70522818    -0.78800
C1860       C  0.57109907  0.54139808  0.67774687     0.97100
C1861       C  0.52064475  0.58399962  0.76543328     0.92000
O1862       O  0.54002874  0.59839723  0.76980637    -0.84100
O1863       O  0.58018059  0.38484636  0.98983731    -0.83600
C1864       C  0.55159976  0.41139361  0.62517860     0.95800
O1865       O  0.56967945  0.39809830  0.61152898    -0.72700
O1866       O  0.59372517  0.37028238  0.56094924    -0.76300
Al1867     Al  0.58474511  0.40631304  0.56580067     1.49000
C1868       C  0.58086660  0.35018281  0.55330992     0.91000
O1869       O  0.51381450  0.37216861  0.52819135    -0.82500
O1870       O  0.51088027  0.42880363  0.51487441    -0.76100
Al1871     Al  0.54751872  0.38077563  0.51227410     1.90100
O1872       O  0.50597724  0.39885971  0.57258492    -0.75100
O1873       O  0.54858374  0.45687799  0.54953823    -0.75000
O1874       O  0.53916957  0.42770835  0.60723837    -0.80600
O1875       O  0.58344071  0.44300436  0.57642730    -0.78800
O1876       O  0.55362534  0.40457431  0.54545359    -1.15000
O1877       O  0.60217007  0.41370992  0.52138395    -0.74200
C1878       C  0.59954337  0.39962614  0.49370356     0.96500
C1879       C  0.49989250  0.37938693  0.55376935     0.92900
Al1880     Al  0.52857178  0.42639645  0.55951300     1.55600
O1881       O  0.55870417  0.35227705  0.54029385    -0.78800
C1882       C  0.56795263  0.46129417  0.56936398     0.97100
C1883       C  0.51455992  0.41778862  0.98545386     0.92000
O1884       O  0.53512358  0.40559786  0.97990127    -0.84100
O1885       O  0.85125004  0.21735205  0.85967101    -0.83600
C1886       C  0.83938200  0.19848994  0.50384855     0.95800
O1887       O  0.82400839  0.21165729  0.98528685    -0.72700
O1888       O  0.85104626  0.24652739  0.95166674    -0.76300
Al1889     Al  0.82548942  0.22215558  0.93748873     1.49000
C1890       C  0.87144137  0.25275285  0.93567339     0.91000
O1891       O  0.89984827  0.19298910  0.92558702    -0.82500
O1892       O  0.84025360  0.14887323  0.89841495    -0.76100
Al1893     Al  0.87345031  0.20433539  0.89462773     1.90100
O1894       O  0.88181838  0.15640454  0.94090397    -0.75100
O1895       O  0.80956362  0.16605601  0.95396635    -0.75000
O1896       O  0.85273832  0.18012048  0.99069238    -0.80600
O1897       O  0.79608072  0.20099458  0.92666368    -0.78800
O1898       O  0.84817248  0.19744134  0.92496100    -1.15000
O1899       O  0.82371848  0.23910981  0.89212188    -0.74200
C1900       C  0.83659694  0.23658678  0.86391113     0.96500
C1901       C  0.90180998  0.16983652  0.93588816     0.92900
Al1902     Al  0.84607665  0.16550440  0.94421780     1.55600
O1903       O  0.88076546  0.23834271  0.91189212    -0.78800
C1904       C  0.79154562  0.18174225  0.94692536     0.97100
C1905       C  0.85586514  0.15174916  0.87250225     0.92000
O1906       O  0.87089980  0.17125854  0.87101731    -0.84100
O1907       O  0.65122520  0.21229418  0.64216334    -0.83600
C1908       C  0.66074508  0.19558772  0.99704169     0.95800
O1909       O  0.67535535  0.20986412  0.51546993    -0.72700
O1910       O  0.64790573  0.24333788  0.55064231    -0.76300
Al1911     Al  0.67452754  0.21987028  0.56344546     1.49000
C1912       C  0.62818611  0.24929656  0.56829776     0.91000
O1913       O  0.60141820  0.18900831  0.57681240    -0.82500
O1914       O  0.66234270  0.14584193  0.60172000    -0.76100
Al1915     Al  0.62812106  0.20007868  0.60773140     1.90100
O1916       O  0.61977129  0.15279630  0.56031840    -0.75100
O1917       O  0.69183831  0.16427989  0.54608199    -0.75000
O1918       O  0.64806183  0.17682963  0.51043901    -0.80600
O1919       O  0.70480149  0.19979745  0.57278383    -0.78800
O1920       O  0.65287246  0.19426970  0.57624771    -1.15000
O1921       O  0.67661893  0.23632996  0.60919324    -0.74200
C1922       C  0.66473724  0.23245003  0.63797242     0.96500
C1923       C  0.59971527  0.16615954  0.56502579     0.92900
Al1924     Al  0.65547073  0.16253877  0.55653183     1.55600
O1925       O  0.62004584  0.23459101  0.59262864    -0.78800
C1926       C  0.70952098  0.18061308  0.55250658     0.97100
C1927       C  0.64681775  0.14778235  0.62775753     0.92000
O1928       O  0.63117579  0.16662972  0.62985754    -0.84100
O1929       O  0.08369344  0.12075911  0.50521269    -0.83600
C1930       C  0.05423787  0.09198196  0.87181121     0.95800
O1931       O  0.07222998  0.10571255  0.88509896    -0.72700
O1932       O  0.09577679  0.13432538  0.93521718    -0.76300
Al1933     Al  0.08760230  0.09813028  0.93045654     1.49000
C1934       C  0.08210859  0.15395719  0.94185034     0.91000
O1935       O  0.01604456  0.13030396  0.96921314    -0.82500
O1936       O  0.01606548  0.07296430  0.98414377    -0.76100
Al1937     Al  0.05032939  0.12316886  0.98381178     1.90100
O1938       O  0.00766634  0.10233524  0.92654587    -0.75100
O1939       O  0.05342272  0.04672291  0.94717784    -0.75000
O1940       O  0.04137556  0.07613268  0.89018261    -0.80600
O1941       O  0.08724394  0.06164870  0.91923497    -0.78800
O1942       O  0.05656089  0.09906032  0.95122781    -1.15000
O1943       O  0.10526688  0.09118623  0.97467088    -0.74200
C1944       C  0.10301625  0.10604910  0.00158813     0.96500
C1945       C  0.00157504  0.12198326  0.94480691     0.92900
Al1946     Al  0.03202312  0.07622612  0.93840178     1.55600
O1947       O  0.05983024  0.15115478  0.95403764    -0.78800
C1948       C  0.07209361  0.04304247  0.92609031     0.97100
C1949       C  0.01959487  0.08494259  0.51302138     0.92000
O1950       O  0.03949017  0.09858246  0.51754412    -0.84100
O1951       O  0.08416636  0.88558888  0.73922759    -0.83600
C1952       C  0.05570233  0.91312249  0.87307649     0.95800
O1953       O  0.07430636  0.90053432  0.85945266    -0.72700
O1954       O  0.09863074  0.87325322  0.80843779    -0.76300
Al1955     Al  0.08855439  0.90895800  0.81342973     1.49000
C1956       C  0.08560689  0.85284767  0.80343198     0.91000
O1957       O  0.01745002  0.87289399  0.77717777    -0.82500
O1958       O  0.01589500  0.93069350  0.76201196    -0.76100
Al1959     Al  0.05138478  0.88146817  0.76183145     1.90100
O1960       O  0.00883300  0.90099737  0.81939440    -0.75100
O1961       O  0.05199196  0.95857315  0.79759326    -0.75000
O1962       O  0.04215505  0.92855792  0.85505280    -0.80600
O1963       O  0.08678795  0.94537553  0.82464570    -0.78800
O1964       O  0.05720939  0.90627669  0.79372530    -1.15000
O1965       O  0.10470959  0.91687977  0.76842147    -0.74200
C1966       C  0.10248668  0.90191210  0.74155147     0.96500
C1967       C  0.00260399  0.88146010  0.80088805     0.92900
Al1968     Al  0.03213127  0.92803542  0.80709712     1.55600
O1969       O  0.06292821  0.85431003  0.79200851    -0.78800
C1970       C  0.07103855  0.96332518  0.81763074     0.97100
C1971       C  0.01918093  0.91896144  0.73299668     0.92000
O1972       O  0.03857942  0.90480549  0.72796303    -0.84100
O1973       O  0.14879918  0.29196921  0.85717804    -0.83600
C1974       C  0.16243554  0.30994351  0.50267708     0.95800
O1975       O  0.17530193  0.29466692  0.98348945    -0.72700
O1976       O  0.14639369  0.26189704  0.94971439    -0.76300
Al1977     Al  0.17322750  0.28447037  0.93566502     1.49000
C1978       C  0.12664335  0.25593577  0.93205920     0.91000
O1979       O  0.10097481  0.31629608  0.92420694    -0.82500
O1980       O  0.16208109  0.35839903  0.89704851    -0.76100
Al1981     Al  0.12669322  0.30479527  0.89249429     1.90100
O1982       O  0.12007969  0.35245145  0.93995705    -0.75100
O1983       O  0.19237090  0.33978538  0.95149746    -0.75000
O1984       O  0.14945726  0.32858179  0.98951363    -0.80600
O1985       O  0.20352381  0.30379263  0.92469977    -0.78800
O1986       O  0.15205341  0.31037828  0.92330935    -1.15000
O1987       O  0.17413449  0.26782696  0.89004885    -0.74200
C1988       C  0.16262089  0.27202918  0.86103591     0.96500
C1989       C  0.09973156  0.33929498  0.93550189     0.92900
Al1990     Al  0.15581692  0.34219692  0.94261551     1.55600
O1991       O  0.11837883  0.27055792  0.90779618    -0.78800
C1992       C  0.20924662  0.32277489  0.94478877     0.97100
C1993       C  0.14602338  0.35656828  0.87157795     0.92000
O1994       O  0.12988307  0.33805475  0.87020040    -0.84100
O1995       O  0.34847905  0.28447948  0.63924593    -0.83600
C1996       C  0.33863005  0.30010151  0.99400419     0.95800
O1997       O  0.32303532  0.28746047  0.51290227    -0.72700
O1998       O  0.35043990  0.25373786  0.54763531    -0.76300
Al1999     Al  0.32442353  0.27770605  0.56081422     1.49000
C2000       C  0.37048689  0.24768455  0.56462897     0.91000
O2001       O  0.39866175  0.30731248  0.57461888    -0.82500
O2002       O  0.33890507  0.35181000  0.59762646    -0.76100
Al2003     Al  0.37156478  0.29654236  0.60485254     1.90100
O2004       O  0.38089619  0.34334348  0.55665277    -0.75100
O2005       O  0.30906844  0.33332976  0.54267340    -0.75000
O2006       O  0.35227607  0.31852784  0.50674180    -0.80600
O2007       O  0.29484179  0.29875742  0.57053609    -0.78800
O2008       O  0.34693339  0.30276660  0.57324344    -1.15000
O2009       O  0.32230318  0.26125240  0.60637047    -0.74200
C2010       C  0.33430444  0.26480564  0.63513528     0.96500
C2011       C  0.40073903  0.33015937  0.56312251     0.92900
Al2012     Al  0.34527092  0.33420133  0.55270966     1.55600
O2013       O  0.37901157  0.26215066  0.58907802    -0.78800
C2014       C  0.29073621  0.31809691  0.55023006     0.97100
C2015       C  0.35355163  0.34914161  0.62465129     0.92000
O2016       O  0.36870611  0.32991180  0.62721278    -0.84100
O2017       O  0.03709899  0.60063797  0.98166003    -0.83600
C2018       C  0.05337455  0.59529645  0.62780207     0.95800
O2019       O  0.04010447  0.57961373  0.60978956    -0.72700
O2020       O  0.00803264  0.60883207  0.57471786    -0.76300
Al2021     Al  0.02976215  0.58064248  0.56196069     1.49000
C2022       C  0.00159897  0.62750751  0.55480505     0.91000
O2023       O  0.06085748  0.65379751  0.54236244    -0.82500
O2024       O  0.10334805  0.59172314  0.52313402    -0.76100
Al2025     Al  0.04949544  0.62548606  0.51408781     1.90100
O2026       O  0.09583436  0.63552481  0.56251320    -0.75100
O2027       O  0.08429877  0.56307091  0.57894495    -0.75000
O2028       O  0.07171337  0.60823347  0.61391347    -0.80600
O2029       O  0.04897192  0.54964766  0.55261815    -0.78800
O2030       O  0.05521560  0.60179664  0.54759668    -1.15000
O2031       O  0.01232960  0.57812273  0.51705027    -0.74200
C2032       C  0.01634917  0.58866763  0.98733655     0.96500
C2033       C  0.08326029  0.65572278  0.55476934     0.92900
Al2034     Al  0.08631594  0.59965599  0.56784375     1.55600
O2035       O  0.01545947  0.63416772  0.52886309    -0.78800
C2036       C  0.06827687  0.54505165  0.57241751     0.97100
C2037       C  0.10100846  0.60589838  0.49549336     0.92000
O2038       O  0.08222437  0.62133831  0.99208286    -0.84100
O2039       O  0.03696314  0.40432651  0.76864187    -0.83600
C2040       C  0.05402947  0.41566794  0.62387555     0.95800
O2041       O  0.04017440  0.43039320  0.64256958    -0.72700
O2042       O  0.00658313  0.40331780  0.67761631    -0.76300
Al2043     Al  0.03050496  0.42953725  0.69060621     1.49000
C2044       C  0.00060136  0.38293421  0.69434678     0.91000
O2045       O  0.06046832  0.35488450  0.70259319    -0.82500
O2046       O  0.10294123  0.41654133  0.72863389    -0.76100
Al2047     Al  0.04928101  0.38163308  0.73373772     1.90100
O2048       O  0.09629930  0.37381857  0.68714897    -0.75100
O2049       O  0.08549425  0.44630941  0.67301783    -0.75000
O2050       O  0.07240403  0.40247185  0.63706719    -0.80600
O2051       O  0.05104460  0.45960859  0.70050293    -0.78800
O2052       O  0.05532716  0.40707844  0.70290098    -1.15000
O2053       O  0.01466786  0.43171292  0.73631937    -0.74200
C2054       C  0.01796666  0.41920319  0.76481336     0.96500
C2055       C  0.08329113  0.35337301  0.69185350     0.92900
Al2056     Al  0.08669662  0.40971118  0.68332694     1.55600
O2057       O  0.01532745  0.37374946  0.71781599    -0.78800
C2058       C  0.06976481  0.46427626  0.67991531     0.97100
C2059       C  0.10061000  0.40098330  0.75482072     0.92000
O2060       O  0.08211665  0.38483651  0.75648996    -0.84100
O2061       O  0.96374071  0.90590413  0.97768412    -0.83600
C2062       C  0.94846252  0.91500513  0.62382356     0.95800
O2063       O  0.96267664  0.92940434  0.60516633    -0.72700
O2064       O  0.99523083  0.90141342  0.56957901    -0.76300
Al2065     Al  0.97216314  0.92846428  0.55708008     1.49000
C2066       C  0.00160137  0.88229374  0.55049315     0.91000
O2067       O  0.94347422  0.85446641  0.54285983    -0.82500
O2068       O  0.89897573  0.91503791  0.51987301    -0.76100
Al2069     Al  0.95280480  0.88177991  0.51196718     1.90100
O2070       O  0.90789155  0.87195571  0.56214885    -0.75100
O2071       O  0.91697579  0.94539603  0.57413679    -0.75000
O2072       O  0.93021566  0.90178937  0.61051642    -0.80600
O2073       O  0.95214576  0.95893058  0.54798765    -0.78800
O2074       O  0.94703808  0.90643446  0.54427569    -1.15000
O2075       O  0.98811285  0.93070690  0.51120373    -0.74200
C2076       C  0.98394202  0.91917535  0.98212048     0.96500
C2077       C  0.92230390  0.85230565  0.55855775     0.92900
Al2078     Al  0.91595681  0.90850159  0.56456433     1.55600
O2079       O  0.98722318  0.87452371  0.52568209    -0.78800
C2080       C  0.93296543  0.96343157  0.56788842     0.97100
C2081       C  0.90101670  0.90003037  0.49319515     0.92000
O2082       O  0.91933664  0.88393470  0.99085584    -0.84100
O2083       O  0.96334688  0.10286121  0.76645985    -0.83600
C2084       C  0.94712238  0.09288752  0.62115657     0.95800
O2085       O  0.96058658  0.07784630  0.63986502    -0.72700
O2086       O  0.99402003  0.10507723  0.67536972    -0.76300
Al2087     Al  0.97011485  0.07860709  0.68791693     1.49000
C2088       C  0.00017740  0.12519955  0.69269452     0.91000
O2089       O  0.94094079  0.15327581  0.70128067    -0.82500
O2090       O  0.89731615  0.09225499  0.72615097    -0.76100
Al2091     Al  0.95159107  0.12615871  0.73198197     1.90100
O2092       O  0.90502281  0.13491245  0.68463085    -0.75100
O2093       O  0.91496349  0.06217372  0.67002768    -0.75000
O2094       O  0.92870140  0.10608797  0.63428077    -0.80600
O2095       O  0.94948203  0.04845983  0.69717611    -0.78800
O2096       O  0.94535381  0.10106616  0.70051294    -1.15000
O2097       O  0.98591059  0.07612266  0.73357961    -0.74200
C2098       C  0.98252287  0.08830713  0.76229064     0.96500
C2099       C  0.91822730  0.15514807  0.69016567     0.92900
Al2100     Al  0.91404233  0.09887761  0.68062398     1.55600
O2101       O  0.98568498  0.13385225  0.71673032    -0.78800
C2102       C  0.93069975  0.04405161  0.67642937     0.97100
C2103       C  0.90003629  0.10753495  0.75274381     0.92000
O2104       O  0.91874456  0.12337787  0.75437880    -0.84100
O2105       O  0.85181581  0.67564848  0.64372740    -0.83600
C2106       C  0.84618657  0.71524001  0.00525615     0.95800
O2107       O  0.84547758  0.69106992  0.51195772    -0.72700
O2108       O  0.88417860  0.67177664  0.54976197    -0.76300
Al2109     Al  0.84755248  0.67256789  0.55683928     1.49000
C2110       C  0.90072229  0.67118643  0.57428449     0.91000
O2111       O  0.88999277  0.73093808  0.60100023    -0.82500
O2112       O  0.81459189  0.73152818  0.61967738    -0.76100
Al2113     Al  0.86997622  0.70258153  0.62117168     1.90100
O2114       O  0.85575684  0.75401495  0.58716799    -0.75100
O2115       O  0.80145639  0.71129491  0.55512410    -0.75000
O2116       O  0.84420408  0.73208528  0.52918924    -0.80600
O2117       O  0.81040630  0.66959357  0.55739377    -0.78800
O2118       O  0.84890046  0.70137439  0.58386016    -1.15000
O2119       O  0.84999525  0.64857836  0.59812910    -0.74200
C2120       C  0.85044632  0.65272492  0.63168296     0.96500
C2121       C  0.87962277  0.75256477  0.59290974     0.92900
Al2122     Al  0.83029103  0.72953056  0.57380473     1.55600
O2123       O  0.89510247  0.67921554  0.60469592    -0.78800
C2124       C  0.79582114  0.68802394  0.54734899     0.97100
C2125       C  0.82977099  0.73754242  0.64474985     0.92000
O2126       O  0.85093156  0.72607604  0.64780409    -0.84100
O2127       O  0.63239591  0.66444515  0.87188164    -0.83600
C2128       C  0.66438090  0.69635648  0.50285544     0.95800
O2129       O  0.65089048  0.67741108  0.99101961    -0.72700
O2130       O  0.62194983  0.65116949  0.94264926    -0.76300
Al2131     Al  0.65754428  0.66121141  0.94528899     1.49000
C2132       C  0.60184417  0.66420047  0.93715371     0.91000
O2133       O  0.62148521  0.73236748  0.90941371    -0.82500
O2134       O  0.67801861  0.73372775  0.88920859    -0.76100
Al2135     Al  0.62929272  0.69797707  0.89372975     1.90100
O2136       O  0.65124103  0.74189982  0.94885143    -0.75100
O2137       O  0.70655885  0.69673858  0.92383182    -0.75000
O2138       O  0.67988388  0.70852569  0.98329378    -0.80600
O2139       O  0.69417391  0.66282993  0.95446530    -0.78800
O2140       O  0.65480407  0.69242578  0.92418406    -1.15000
O2141       O  0.66343911  0.64340330  0.90036858    -0.74200
C2142       C  0.64803174  0.64556557  0.87403116     0.96500
C2143       C  0.63056258  0.74739031  0.93285112     0.92900
Al2144     Al  0.67721980  0.71780354  0.93502791     1.55600
O2145       O  0.60346987  0.68701432  0.92550394    -0.78800
C2146       C  0.71193035  0.67821786  0.94497235     0.97100
C2147       C  0.66514574  0.73015216  0.86118862     0.92000
O2148       O  0.65100629  0.71037597  0.85781476    -0.84100
O2149       O  0.41439146  0.87979919  0.75595229    -0.83600
C2150       C  0.44322173  0.90794087  0.62135229     0.95800
O2151       O  0.42502869  0.89453524  0.63474459    -0.72700
O2152       O  0.40057473  0.86632976  0.68547592    -0.76300
Al2153     Al  0.41053004  0.90243820  0.68087543     1.49000
C2154       C  0.41325713  0.84604308  0.69258736     0.91000
O2155       O  0.48121697  0.86681848  0.71849622    -0.82500
O2156       O  0.48435312  0.92321438  0.73318872    -0.76100
Al2157     Al  0.44723044  0.87556242  0.73388396     1.90100
O2158       O  0.48906550  0.89386805  0.67462105    -0.75100
O2159       O  0.44769862  0.95194444  0.69832882    -0.75000
O2160       O  0.45690957  0.92286224  0.64007089    -0.80600
O2161       O  0.41277291  0.93921768  0.67054515    -0.78800
O2162       O  0.44165253  0.89986413  0.70126121    -1.15000
O2163       O  0.39367705  0.91003057  0.72536026    -0.74200
C2164       C  0.39576930  0.89551684  0.75260911     0.96500
C2165       C  0.49536813  0.87455729  0.69336731     0.92900
Al2166     Al  0.46709517  0.92135150  0.68799970     1.55600
O2167       O  0.43574151  0.84794097  0.70463044    -0.78800
C2168       C  0.42887842  0.95698900  0.67793287     0.97100
C2169       C  0.48025809  0.91225844  0.76265529     0.92000
O2170       O  0.45986045  0.89948540  0.76748247    -0.84100
O2171       O  0.41869607  0.11210613  0.98594603    -0.83600
C2172       C  0.44634133  0.08850003  0.62220195     0.95800
O2173       O  0.42808168  0.10101145  0.60755815    -0.72700
O2174       O  0.40456913  0.12725755  0.55464892    -0.76300
Al2175     Al  0.41405488  0.09152002  0.56173997     1.49000
C2176       C  0.41772793  0.14728842  0.54776071     0.91000
O2177       O  0.48544806  0.12579239  0.52340056    -0.82500
O2178       O  0.48731194  0.06788435  0.51228073    -0.76100
Al2179     Al  0.45144315  0.11665526  0.50835866     1.90100
O2180       O  0.49358325  0.09964240  0.56806475    -0.75100
O2181       O  0.45073437  0.04109857  0.54975292    -0.75000
O2182       O  0.46043642  0.07313690  0.60494722    -0.80600
O2183       O  0.41560549  0.05540403  0.57492054    -0.78800
O2184       O  0.44545382  0.09329183  0.54213990    -1.15000
O2185       O  0.39763648  0.08243773  0.51715042    -0.74200
C2186       C  0.40001481  0.09638970  0.48935856     0.96500
C2187       C  0.49976335  0.11866681  0.54864520     0.92900
Al2188     Al  0.47057356  0.07204073  0.55717269     1.55600
O2189       O  0.44025774  0.14517646  0.53614239    -0.78800
C2190       C  0.43147503  0.03720129  0.56974143     0.97100
C2191       C  0.48377241  0.07866717  0.98261684     0.92000
O2192       O  0.46367342  0.09152593  0.97663286    -0.84100
O2193       O  0.36723902  0.16046285  0.87832409    -0.83600
C2194       C  0.33752722  0.19204729  0.74609235     0.95800
O2195       O  0.35136668  0.17385819  0.75868717    -0.72700
O2196       O  0.38034836  0.14987353  0.80784322    -0.76300
Al2197     Al  0.34434543  0.15728364  0.80364226     1.49000
C2198       C  0.39956012  0.16405061  0.81489868     0.91000
O2199       O  0.37499615  0.22993060  0.84497886    -0.82500
O2200       O  0.31898578  0.22822568  0.85972683    -0.76100
Al2201     Al  0.36877295  0.19468495  0.85828144     1.90100
O2202       O  0.34746136  0.23815816  0.80214649    -0.75100
O2203       O  0.29364359  0.19041304  0.82290486    -0.75000
O2204       O  0.32154668  0.20412834  0.76498918    -0.80600
O2205       O  0.30793553  0.15713315  0.79268536    -0.78800
O2206       O  0.34501011  0.18835287  0.82551238    -1.15000
O2207       O  0.33811106  0.13842972  0.84744936    -0.74200
C2208       C  0.35290290  0.14064053  0.87435336     0.96500
C2209       C  0.36663845  0.24467359  0.82080475     0.92900
Al2210     Al  0.32208002  0.21286154  0.81370752     1.55600
O2211       O  0.39650080  0.18631483  0.82800089    -0.78800
C2212       C  0.28966256  0.17226243  0.80071212     0.97100
C2213       C  0.33070829  0.22435157  0.88857464     0.92000
O2214       O  0.34442861  0.20439957  0.89254489    -0.84100
O2215       O  0.13464576  0.17225838  0.61321443    -0.83600
C2216       C  0.16124430  0.20013999  0.74835598     0.95800
O2217       O  0.14778623  0.18196194  0.73458223    -0.72700
O2218       O  0.12005275  0.15790048  0.68344825    -0.76300
Al2219     Al  0.15565362  0.16648621  0.68892855     1.49000
C2220       C  0.10059834  0.17153518  0.67676236     0.91000
O2221       O  0.12376981  0.23907081  0.65294953    -0.82500
O2222       O  0.18183823  0.23936171  0.63794699    -0.76100
Al2223     Al  0.13131896  0.20518946  0.63632100     1.90100
O2224       O  0.15222477  0.24745735  0.69468511    -0.75100
O2225       O  0.20714819  0.20077642  0.67379471    -0.75000
O2226       O  0.17788525  0.21236098  0.73070593    -0.80600
O2227       O  0.19151686  0.16634685  0.70048708    -0.78800
O2228       O  0.15511688  0.19817848  0.66883434    -1.15000
O2229       O  0.16273506  0.14915980  0.64433125    -0.74200
C2230       C  0.14904762  0.15250589  0.61657030     0.96500
C2231       C  0.13231063  0.25355062  0.67728839     0.92900
Al2232     Al  0.17796926  0.22256942  0.68273457     1.55600
O2233       O  0.10323901  0.19417952  0.66480360    -0.78800
C2234       C  0.21039163  0.18095372  0.69345964     0.97100
C2235       C  0.16957071  0.23732655  0.60922530     0.92000
O2236       O  0.15523173  0.21798673  0.60340495    -0.84100
O2237       O  0.53583317  0.90374365  0.51969234    -0.83600
C2238       C  0.55202901  0.90775353  0.87373695     0.95800
O2239       O  0.53936463  0.92406404  0.89136826    -0.72700
O2240       O  0.50666084  0.89620752  0.92711464    -0.76300
Al2241     Al  0.52922117  0.92386432  0.93926558     1.49000
C2242       C  0.49990814  0.87745759  0.94669432     0.91000
O2243       O  0.55934309  0.84995498  0.95979857    -0.82500
O2244       O  0.60243252  0.91228399  0.97804982    -0.76100
Al2245     Al  0.54810314  0.87877742  0.98753549     1.90100
O2246       O  0.59453026  0.86793920  0.93982184    -0.75100
O2247       O  0.58387151  0.94035668  0.92120503    -0.75000
O2248       O  0.57024847  0.89475138  0.88777509    -0.80600
O2249       O  0.54925597  0.95458184  0.94794466    -0.78800
O2250       O  0.55419114  0.90227516  0.95384965    -1.15000
O2251       O  0.51202699  0.92718423  0.98411085    -0.74200
C2252       C  0.51554799  0.91634966  0.51379680     0.96500
C2253       C  0.58175305  0.84780919  0.94757650     0.92900
Al2254     Al  0.58527983  0.90385133  0.93353303     1.55600
O2255       O  0.51386541  0.87022204  0.97234787    -0.78800
C2256       C  0.56824718  0.95868177  0.92744231     0.97100
C2257       C  0.59983331  0.89863581  0.00614757     0.92000
O2258       O  0.58094414  0.88318039  0.50981375    -0.84100
O2259       O  0.53643659  0.09689357  0.72843641    -0.83600
C2260       C  0.55414605  0.08729690  0.87395374     0.95800
O2261       O  0.53965399  0.07305172  0.85538788    -0.72700
O2262       O  0.50691782  0.10098336  0.82052211    -0.76300
Al2263     Al  0.52957393  0.07392910  0.80757196     1.49000
C2264       C  0.50076087  0.12065907  0.80245269     0.91000
O2265       O  0.56012173  0.14791629  0.79247748    -0.82500
O2266       O  0.60260012  0.08623637  0.76895293    -0.76100
Al2267     Al  0.54889180  0.12055726  0.76237839     1.90100
O2268       O  0.59563463  0.12934284  0.81008049    -0.75100
O2269       O  0.58451168  0.05646581  0.82429109    -0.75000
O2270       O  0.57232320  0.10055720  0.86038432    -0.80600
O2271       O  0.54921681  0.04330870  0.79804348    -0.78800
O2272       O  0.55479511  0.09576830  0.79433803    -1.15000
O2273       O  0.51281961  0.07168385  0.76219134    -0.74200
C2274       C  0.51645049  0.08342527  0.73316343     0.96500
C2275       C  0.58260163  0.14965066  0.80458572     0.92900
Al2276     Al  0.58617444  0.09322397  0.81401142     1.55600
O2277       O  0.51498919  0.12885555  0.77778978    -0.78800
C2278       C  0.56828617  0.03861242  0.81813971     0.97100
C2279       C  0.60039254  0.10146385  0.74243160     0.92000
O2280       O  0.58169294  0.11715272  0.73998875    -0.84100
O2281       O  0.86642480  0.33768122  0.61799636    -0.83600
C2282       C  0.83924231  0.30850470  0.75254244     0.95800
O2283       O  0.85217669  0.32705147  0.73885318    -0.72700
O2284       O  0.87990890  0.35114883  0.68773979    -0.76300
Al2285     Al  0.84413430  0.34196236  0.69285810     1.49000
C2286       C  0.89958701  0.33764328  0.68111836     0.91000
O2287       O  0.87753161  0.26991466  0.65441320    -0.82500
O2288       O  0.82130702  0.26825044  0.64084041    -0.76100
Al2289     Al  0.86956190  0.30438003  0.63976950     1.90100
O2290       O  0.85104405  0.26152302  0.69830462    -0.75100
O2291       O  0.79434226  0.30531520  0.67709419    -0.75000
O2292       O  0.82397411  0.29488282  0.73429824    -0.80600
O2293       O  0.80780047  0.34053152  0.70424853    -0.78800
O2294       O  0.84588896  0.31037496  0.67265311    -1.15000
O2295       O  0.83673579  0.35925105  0.64793964    -0.74200
C2296       C  0.85121846  0.35677504  0.62080158     0.96500
C2297       C  0.87014712  0.25546523  0.67944476     0.92900
Al2298     Al  0.82428084  0.28494451  0.68618993     1.55600
O2299       O  0.89722117  0.31494696  0.66906076    -0.78800
C2300       C  0.78992737  0.32442127  0.69757062     0.97100
C2301       C  0.83223720  0.27230287  0.61146645     0.92000
O2302       O  0.84520095  0.29272097  0.60659364    -0.84100
O2303       O  0.63201212  0.33348005  0.88325980    -0.83600
C2304       C  0.65911754  0.30410391  0.74901396     0.95800
O2305       O  0.64579817  0.32230400  0.76256537    -0.72700
O2306       O  0.61780661  0.34599457  0.81310391    -0.76300
Al2307     Al  0.65368192  0.33781069  0.80802389     1.49000
C2308       C  0.59837958  0.33204620  0.81972866     0.91000
O2309       O  0.62187370  0.26501814  0.84698812    -0.82500
O2310       O  0.67881835  0.26532307  0.86073207    -0.76100
Al2311     Al  0.62929126  0.29983239  0.86166934     1.90100
O2312       O  0.64904866  0.25703840  0.80379655    -0.75100
O2313       O  0.70471320  0.30307998  0.82362510    -0.75000
O2314       O  0.67492981  0.29115307  0.76713269    -0.80600
O2315       O  0.68984673  0.33754216  0.79636879    -0.78800
O2316       O  0.65283045  0.30633981  0.82867809    -1.15000
O2317       O  0.66086787  0.35569973  0.85239658    -0.74200
C2318       C  0.64654691  0.35317272  0.87964923     0.96500
C2319       C  0.62980670  0.25058455  0.82223056     0.92900
Al2320     Al  0.67517102  0.28157664  0.81529531     1.55600
O2321       O  0.60117931  0.30963929  0.83252777    -0.78800
C2322       C  0.70834963  0.32234494  0.80306558     0.97100
C2323       C  0.66733276  0.26874856  0.88981891     0.92000
O2324       O  0.65389019  0.28876223  0.89477141    -0.84100
O2325       O  0.46205986  0.59511421  0.52043844    -0.83600
C2326       C  0.44917553  0.58787937  0.87443815     0.95800
O2327       O  0.46177173  0.57214879  0.89329404    -0.72700
O2328       O  0.49535621  0.59781342  0.93068771    -0.76300
Al2329     Al  0.47035516  0.57217028  0.94178718     1.49000
C2330       C  0.50173621  0.61738105  0.94898306     0.91000
O2331       O  0.44447715  0.64813836  0.95599011    -0.82500
O2332       O  0.39737287  0.58864509  0.97605932    -0.76100
Al2333     Al  0.45254930  0.61984816  0.98633803     1.90100
O2334       O  0.40873324  0.63177299  0.93525735    -0.75100
O2335       O  0.41497086  0.55820798  0.92121965    -0.75000
O2336       O  0.43133988  0.60187122  0.88713409    -0.80600
O2337       O  0.44832750  0.54276741  0.94961631    -0.78800
O2338       O  0.44623171  0.59557608  0.95366377    -1.15000
O2339       O  0.48545058  0.56884777  0.98818073    -0.74200
C2340       C  0.48185463  0.58134126  0.51666572     0.96500
C2341       C  0.42343408  0.65113139  0.94013560     0.92900
Al2342     Al  0.41551587  0.59504620  0.93208532     1.55600
O2343       O  0.48723575  0.62606924  0.97297649    -0.78800
C2344       C  0.42969654  0.53930413  0.92822029     0.97100
C2345       C  0.39986465  0.60304952  0.00338672     0.92000
O2346       O  0.41887680  0.61839609  0.50669575    -0.84100
O2347       O  0.46009941  0.39681381  0.73097413    -0.83600
C2348       C  0.44332408  0.40807548  0.87635786     0.95800
O2349       O  0.45763004  0.42242800  0.85768954    -0.72700
O2350       O  0.49065501  0.39541086  0.82176596    -0.76300
Al2351     Al  0.46697558  0.42189192  0.80950747     1.49000
C2352       C  0.49659689  0.37522574  0.80463411     0.91000
O2353       O  0.43629428  0.34768076  0.79739846    -0.82500
O2354       O  0.39409502  0.40929022  0.77087626    -0.76100
Al2355     Al  0.44757020  0.37420164  0.76602919     1.90100
O2356       O  0.40046036  0.36649977  0.81277741    -0.75100
O2357       O  0.41205642  0.43936548  0.82720473    -0.75000
O2358       O  0.42455473  0.39534237  0.86308074    -0.80600
O2359       O  0.44700769  0.45243299  0.80060486    -0.78800
O2360       O  0.44180073  0.39973362  0.79700933    -1.15000
O2361       O  0.48241172  0.42427964  0.76355300    -0.74200
C2362       C  0.47904360  0.41191929  0.73487815     0.96500
C2363       C  0.41348589  0.34608684  0.80820013     0.92900
Al2364     Al  0.41041240  0.40256036  0.81657777     1.55600
O2365       O  0.48165533  0.36606230  0.78135362    -0.78800
C2366       C  0.42821582  0.45721562  0.82098661     0.97100
C2367       C  0.39619082  0.39343491  0.74486217     0.92000
O2368       O  0.41461546  0.37731744  0.74345926    -0.84100
C2369       C  0.45185699  0.50638111  0.88943997    -0.15100
C2370       C  0.42878756  0.51626433  0.90369270     0.07000
C2371       C  0.40545056  0.50817921  0.88792232    -0.15100
C2372       C  0.40517593  0.49005460  0.85971217    -0.15100
C2373       C  0.42827662  0.48046088  0.84517630     0.07000
C2374       C  0.45161882  0.48905377  0.86040283    -0.15100
H2375       H  0.47024884  0.51284110  0.89989886     0.11000
H2376       H  0.38736066  0.51599702  0.89738189     0.11000
H2377       H  0.38683490  0.48335370  0.84936306     0.11000
H2378       H  0.46978189  0.48151877  0.85078633     0.11000
C2379       C  0.56800578  0.36937339  0.82089769    -0.15100
C2380       C  0.57231638  0.34274331  0.81482431     0.07000
C2381       C  0.55138039  0.32647972  0.80624873    -0.15100
C2382       C  0.52654781  0.33687657  0.80313661    -0.15100
C2383       C  0.52221617  0.36346769  0.80989543     0.07000
C2384       C  0.54316277  0.37956524  0.81890983    -0.15100
H2385       H  0.58381248  0.38223187  0.82791466     0.11000
H2386       H  0.55430124  0.30584622  0.80157612     0.11000
H2387       H  0.51072451  0.32416347  0.79571941     0.11000
H2388       H  0.54041471  0.40022792  0.82357348     0.11000
C2389       C  0.75970269  0.30070874  0.73799589    -0.15100
C2390       C  0.76711015  0.32427050  0.72166843     0.07000
C2391       C  0.75658217  0.34761428  0.73480905    -0.15100
C2392       C  0.73845800  0.34726442  0.76263301    -0.15100
C2393       C  0.73136676  0.32369033  0.77930786     0.07000
C2394       C  0.74241635  0.30045265  0.76665542    -0.15100
H2395       H  0.76806871  0.28242583  0.72947303     0.11000
H2396       H  0.76243288  0.36614640  0.72356636     0.11000
H2397       H  0.72978662  0.36544686  0.77097342     0.11000
H2398       H  0.73686359  0.28184832  0.77796552     0.11000
C2399       C  0.57929340  0.19732138  0.81840260    -0.15100
C2400       C  0.59441104  0.17550551  0.81000858     0.07000
C2401       C  0.62097986  0.17875691  0.80465799    -0.15100
C2402       C  0.63225829  0.20342423  0.80736326    -0.15100
C2403       C  0.61727981  0.22515872  0.81636080     0.07000
C2404       C  0.59074595  0.22192024  0.82219981    -0.15100
H2405       H  0.55873061  0.19526667  0.82241334     0.11000
H2406       H  0.63296129  0.16226954  0.79769328     0.11000
H2407       H  0.65282195  0.20542401  0.80328406     0.11000
H2408       H  0.57889393  0.23844754  0.82941019     0.11000
C2409       C  0.59181388  0.98891862  0.88577394    -0.15100
C2410       C  0.56874238  0.98147284  0.90267244     0.07000
C2411       C  0.54547159  0.99141995  0.88909557    -0.15100
C2412       C  0.54526229  0.00803958  0.85936936    -0.15100
C2413       C  0.56835710  0.01576878  0.84278032     0.07000
C2414       C  0.59165709  0.00623706  0.85677321    -0.15100
H2415       H  0.61003007  0.98107684  0.89481239     0.11000
H2416       H  0.52725966  0.98550934  0.90058799     0.11000
H2417       H  0.52700397  0.01573801  0.85027445     0.11000
H2418       H  0.60982979  0.01242704  0.84542757     0.11000
C2419       C  0.44679810  0.16988968  0.80417023    -0.15100
C2420       C  0.42562840  0.15351313  0.81089805     0.07000
C2421       C  0.42963025  0.12680391  0.81653290    -0.15100
C2422       C  0.45437847  0.11653455  0.81555591    -0.15100
C2423       C  0.47549120  0.13265951  0.80790348     0.07000
C2424       C  0.47159558  0.15939896  0.80196060    -0.15100
H2425       H  0.44408281  0.19062007  0.80012514     0.11000
H2426       H  0.41362197  0.11389992  0.82228345     0.11000
H2427       H  0.45692404  0.09577500  0.81959993     0.11000
H2428       H  0.48768899  0.17207442  0.79569265     0.11000
C2429       C  0.25871077  0.15128288  0.75737967    -0.15100
C2430       C  0.26741884  0.17357054  0.77571981     0.07000
C2431       C  0.25910351  0.19816655  0.76377918    -0.15100
C2432       C  0.24279850  0.20049828  0.73427050    -0.15100
C2433       C  0.23346256  0.17827186  0.71656063     0.07000
C2434       C  0.24138247  0.15357824  0.72875445    -0.15100
H2435       H  0.26533300  0.13211081  0.76520523     0.11000
H2436       H  0.26599648  0.21582802  0.77645401     0.11000
H2437       H  0.23637010  0.21975073  0.72648969     0.11000
H2438       H  0.23383019  0.13604609  0.71642747     0.11000
C2439       C  0.41635670  0.29851774  0.82179548    -0.15100
C2440       C  0.40141096  0.32028117  0.81274739     0.07000
C2441       C  0.37508473  0.31688333  0.80526899    -0.15100
C2442       C  0.36394682  0.29204633  0.80643642    -0.15100
C2443       C  0.37883448  0.27035381  0.81600229     0.07000
C2444       C  0.40505803  0.27380903  0.82396731    -0.15100
H2445       H  0.43672065  0.30067405  0.82742732     0.11000
H2446       H  0.36325634  0.33336017  0.79777245     0.11000
H2447       H  0.34358975  0.28987790  0.80074167     0.11000
H2448       H  0.41683622  0.25733927  0.83167778     0.11000
C2449       C  0.35863061  0.11263939  0.96533157    -0.15100
C2450       C  0.38044947  0.09686355  0.96075383     0.07000
C2451       C  0.38799618  0.09037696  0.92600262    -0.15100
C2452       C  0.37563173  0.10157989  0.89654182    -0.15100
C2453       C  0.35582100  0.11985817  0.90129792     0.07000
C2454       C  0.34659939  0.12427157  0.93587078    -0.15100
H2455       H  0.35299566  0.11869888  0.99178141     0.11000
H2456       H  0.40527040  0.07899392  0.92173352     0.11000
H2457       H  0.38369791  0.09850214  0.87035653     0.11000
H2458       H  0.33203531  0.13898676  0.94040210     0.11000
C2459       C  0.50951869  0.10580711  0.94185835    -0.15100
C2460       C  0.50546593  0.08138562  0.95796958     0.07000
C2461       C  0.52382390  0.06170670  0.95357331    -0.15100
C2462       C  0.54417533  0.06543895  0.92978409    -0.15100
C2463       C  0.54659734  0.08905766  0.91095782     0.07000
C2464       C  0.53021986  0.10976183  0.91908472    -0.15100
H2465       H  0.49627643  0.12177557  0.94621324     0.11000
H2466       H  0.52157930  0.04308725  0.96682007     0.11000
H2467       H  0.55626257  0.04896508  0.92304722     0.11000
H2468       H  0.53132027  0.12784878  0.90423491     0.11000
C2469       C  0.47234200  0.11234416  0.66420498    -0.15100
C2470       C  0.45445818  0.09228324  0.65882593     0.07000
C2471       C  0.45548160  0.07000565  0.68062802    -0.15100
C2472       C  0.47558149  0.06682344  0.70509262    -0.15100
C2473       C  0.49520665  0.08561803  0.70731521     0.07000
C2474       C  0.49276834  0.10887265  0.68775924    -0.15100
H2475       H  0.47242104  0.12928189  0.64696058     0.11000
H2476       H  0.44233438  0.05388410  0.67600347     0.11000
H2477       H  0.47652022  0.04916820  0.72083178     0.11000
H2478       H  0.50699587  0.12427994  0.69013487     0.11000
C2479       C  0.45285340  0.98851241  0.63943080    -0.15100
C2480       C  0.42930004  0.98020669  0.65414295     0.07000
C2481       C  0.40636047  0.98948956  0.63880850    -0.15100
C2482       C  0.40696508  0.00687939  0.60996591    -0.15100
C2483       C  0.43049887  0.01464583  0.59467784     0.07000
C2484       C  0.45343851  0.00522767  0.60987942    -0.15100
H2485       H  0.47089391  0.98110885  0.64974034     0.11000
H2486       H  0.38790437  0.98292245  0.64882280     0.11000
H2487       H  0.38897554  0.01443145  0.59967897     0.11000
H2488       H  0.47193361  0.01155077  0.59971851     0.11000
C2489       C  0.54213445  0.92455786  0.81416026    -0.15100
C2490       C  0.54202246  0.90339100  0.83797343     0.07000
C2491       C  0.52237372  0.88473482  0.83527823    -0.15100
C2492       C  0.50202022  0.88831547  0.81156266    -0.15100
C2493       C  0.50121307  0.91027773  0.78918063     0.07000
C2494       C  0.52211516  0.92772911  0.78947013    -0.15100
H2495       H  0.55648725  0.93983411  0.81683409     0.11000
H2496       H  0.52121976  0.86890969  0.85431894     0.11000
H2497       H  0.48666796  0.87395805  0.81112272     0.11000
H2498       H  0.52238209  0.94438667  0.77178388     0.11000
C2499       C  0.49018969  0.88944519  0.55579164    -0.15100
C2500       C  0.49371379  0.91350939  0.53847025     0.07000
C2501       C  0.47460472  0.93263230  0.54149023    -0.15100
C2502       C  0.45397262  0.92884920  0.56488221    -0.15100
C2503       C  0.45186809  0.90563666  0.58470452     0.07000
C2504       C  0.46919122  0.88538153  0.57815022    -0.15100
H2505       H  0.50399670  0.87382529  0.55257346     0.11000
H2506       H  0.47639398  0.95094426  0.52735545     0.11000
H2507       H  0.44124813  0.94507530  0.57039723     0.11000
H2508       H  0.46840768  0.86764680  0.59379195     0.11000
C2509       C  0.57317846  0.62521487  0.93618459    -0.15100
C2510       C  0.57633593  0.65215756  0.94150750     0.07000
C2511       C  0.55462774  0.66773801  0.94770936    -0.15100
C2512       C  0.53018864  0.65644169  0.94951745    -0.15100
C2513       C  0.52704355  0.62955452  0.94402270     0.07000
C2514       C  0.54864133  0.61403060  0.93702691    -0.15100
H2515       H  0.58961909  0.61291432  0.93065161     0.11000
H2516       H  0.55660789  0.68860850  0.95140684     0.11000
H2517       H  0.51371137  0.66868684  0.95510506     0.11000
H2518       H  0.54660008  0.59317462  0.93320468     0.11000
C2519       C  0.63231417  0.79485090  0.94688816    -0.15100
C2520       C  0.61758995  0.77248769  0.93959624     0.07000
C2521       C  0.59079643  0.77492457  0.93524724    -0.15100
C2522       C  0.57895229  0.79936074  0.93818742    -0.15100
C2523       C  0.59384026  0.82184551  0.94428340     0.07000
C2524       C  0.62060426  0.81932683  0.94875359    -0.15100
H2525       H  0.65302788  0.79352862  0.94987217     0.11000
H2526       H  0.57906789  0.75793486  0.92941271     0.11000
H2527       H  0.55827085  0.80078048  0.93494056     0.11000
H2528       H  0.63247349  0.83631441  0.95403481     0.11000
C2529       C  0.76758119  0.70497496  0.99871181    -0.15100
C2530       C  0.77434449  0.68396551  0.52110757     0.07000
C2531       C  0.76255904  0.65967242  0.51465653    -0.15100
C2532       C  0.74340403  0.65709610  0.48806473    -0.15100
C2533       C  0.73634645  0.67843468  0.96632454     0.07000
C2534       C  0.74928279  0.70218090  0.97160578    -0.15100
H2535       H  0.77673307  0.72385969  0.00181439     0.11000
H2536       H  0.76768458  0.64290616  0.53062639     0.11000
H2537       H  0.73353831  0.63856997  0.48518935     0.11000
H2538       H  0.74421314  0.71919756  0.95607588     0.11000
C2539       C  0.87958662  0.18349210  0.69196644    -0.15100
C2540       C  0.90622621  0.18094703  0.68661254     0.07000
C2541       C  0.92121806  0.20333847  0.68060419    -0.15100
C2542       C  0.90955998  0.22785010  0.67898082    -0.15100
C2543       C  0.88295526  0.23031588  0.68460741     0.07000
C2544       C  0.86809441  0.20802298  0.69139444    -0.15100
H2545       H  0.86769760  0.16652963  0.69723062     0.11000
H2546       H  0.94183081  0.20182229  0.67676048     0.11000
H2547       H  0.92126155  0.24488389  0.67336034     0.11000
H2548       H  0.84746134  0.20950671  0.69512804     0.11000
C2549       C  0.03011615  0.16337061  0.69902283    -0.15100
C2550       C  0.02530729  0.13794412  0.68646728     0.07000
C2551       C  0.04543354  0.12393125  0.67057196    -0.15100
C2552       C  0.07002872  0.13484358  0.66812678    -0.15100
C2553       C  0.07477396  0.16017784  0.68069262     0.07000
C2554       C  0.05460024  0.17456808  0.69562295    -0.15100
H2555       H  0.01497381  0.17453724  0.71159147     0.11000
H2556       H  0.04235627  0.10424382  0.66095679     0.11000
H2557       H  0.08533047  0.12360942  0.65602196     0.11000
H2558       H  0.05794349  0.19419860  0.70529784     0.11000
C2559       C  0.89066271  0.82462427  0.59046049    -0.15100
C2560       C  0.91384841  0.82656851  0.57179140     0.07000
C2561       C  0.92795622  0.80367073  0.56460346    -0.15100
C2562       C  0.91806689  0.77910525  0.57405135    -0.15100
C2563       C  0.89394849  0.77731726  0.59050275     0.07000
C2564       C  0.88076825  0.80034924  0.59937691    -0.15100
H2565       H  0.87948973  0.84181729  0.59679665     0.11000
H2566       H  0.94604861  0.80466854  0.55038526     0.11000
H2567       H  0.92834577  0.76162591  0.56644930     0.11000
H2568       H  0.86189852  0.79961404  0.61148462     0.11000
C2569       C  0.90902955  0.99720351  0.60348918    -0.15100
C2570       C  0.93251834  0.98644166  0.59222015     0.07000
C2571       C  0.95496507  0.99309194  0.61132783    -0.15100
C2572       C  0.95395741  0.00990600  0.64084308    -0.15100
C2573       C  0.93055216  0.02115921  0.65168260     0.07000
C2574       C  0.90814177  0.01473162  0.63227020    -0.15100
H2575       H  0.89127681  0.99184222  0.59016228     0.11000
H2576       H  0.97325306  0.98438850  0.60437004     0.11000
H2577       H  0.97174201  0.01488952  0.65435105     0.11000
H2578       H  0.88988248  0.02353446  0.63915200     0.11000
C2579       C  0.12225302  0.32529709  0.69317193    -0.15100
C2580       C  0.09560445  0.32775172  0.68750019     0.07000
C2581       C  0.08090477  0.30540711  0.68001697    -0.15100
C2582       C  0.09280994  0.28106493  0.67745936    -0.15100
C2583       C  0.11941772  0.27861657  0.68349052     0.07000
C2584       C  0.13401607  0.30087945  0.69159156    -0.15100
H2585       H  0.13394269  0.34223667  0.69941337     0.11000
H2586       H  0.06031887  0.30683530  0.67573859     0.11000
H2587       H  0.08125832  0.26412204  0.67074758     0.11000
H2588       H  0.15463445  0.29949814  0.69560738     0.11000
C2589       C  0.97121243  0.34427039  0.69656034    -0.15100
C2590       C  0.97525034  0.37070722  0.68844570     0.07000
C2591       C  0.95421874  0.38612437  0.67809811    -0.15100
C2592       C  0.92946578  0.37545466  0.67678026    -0.15100
C2593       C  0.92544314  0.34905481  0.68494354     0.07000
C2594       C  0.94653616  0.33341316  0.69423816    -0.15100
H2595       H  0.98713018  0.33205572  0.70479948     0.11000
H2596       H  0.95679040  0.40663771  0.67213157     0.11000
H2597       H  0.91350342  0.38772388  0.66883818     0.11000
H2598       H  0.94383685  0.31292220  0.70023486     0.11000
C2599       C  0.09237311  0.51321591  0.61082798    -0.15100
C2600       C  0.06890794  0.52185408  0.59626236     0.07000
C2601       C  0.04587894  0.51290088  0.61178304    -0.15100
C2602       C  0.04629485  0.49610423  0.64126009    -0.15100
C2603       C  0.06974344  0.48722165  0.65558404     0.07000
C2604       C  0.09277438  0.49573045  0.63958599    -0.15100
H2605       H  0.11046180  0.52031584  0.60022221     0.11000
H2606       H  0.02746643  0.51981869  0.60211639     0.11000
H2607       H  0.02815970  0.48922607  0.65196657     0.11000
H2608       H  0.11113954  0.48861816  0.64917053     0.11000
C2609       C  0.96295561  0.65020364  0.53073874    -0.15100
C2610       C  0.97669691  0.64046489  0.56013461     0.07000
C2611       C  0.96548270  0.64126052  0.59390483    -0.15100
C2612       C  0.94086955  0.65153050  0.59823894    -0.15100
C2613       C  0.92677638  0.66065272  0.56876085     0.07000
C2614       C  0.93802979  0.65997749  0.53495806    -0.15100
H2615       H  0.97117111  0.64947674  0.50431765     0.11000
H2616       H  0.97568088  0.63378372  0.61687435     0.11000
H2617       H  0.93262464  0.65182855  0.62467149     0.11000
H2618       H  0.92763416  0.66707580  0.51194803     0.11000
C2619       C  0.34694701  0.36057975  0.68813400    -0.15100
C2620       C  0.35483005  0.36841930  0.65403786     0.07000
C2621       C  0.37197344  0.38960761  0.65124829    -0.15100
C2622       C  0.38300318  0.40085665  0.68188101    -0.15100
C2623       C  0.37682861  0.39139194  0.71591442     0.07000
C2624       C  0.35769953  0.37204120  0.71870839    -0.15100
H2625       H  0.33457404  0.34366663  0.69113701     0.11000
H2626       H  0.37917097  0.39538930  0.62541246     0.11000
H2627       H  0.39840120  0.41497869  0.67880084     0.11000
H2628       H  0.35330134  0.36362678  0.74440060     0.11000
C2629       C  0.31877999  0.28754320  0.93767912    -0.15100
C2630       C  0.34135336  0.28964308  0.95827344     0.07000
C2631       C  0.36069041  0.27094006  0.95412566    -0.15100
C2632       C  0.35647713  0.24912218  0.93273562    -0.15100
C2633       C  0.33315569  0.24600618  0.91409426     0.07000
C2634       C  0.31482360  0.26601830  0.91543480    -0.15100
H2635       H  0.30314125  0.30120660  0.94157276     0.11000
H2636       H  0.37779297  0.27158807  0.97068032     0.11000
H2637       H  0.37149878  0.23456135  0.93099049     0.11000
H2638       H  0.29708934  0.26452842  0.90035169     0.11000
C2639       C  0.31665573  0.22414174  0.66344908    -0.15100
C2640       C  0.33549306  0.24378465  0.66175998     0.07000
C2641       C  0.35785754  0.24143191  0.68269050    -0.15100
C2642       C  0.36060889  0.22085009  0.70648997    -0.15100
C2643       C  0.34078741  0.20260326  0.71054128     0.07000
C2644       C  0.31907380  0.20392511  0.68821507    -0.15100
H2645       H  0.29963932  0.22505980  0.64680448     0.11000
H2646       H  0.37320638  0.25573410  0.68100016     0.11000
H2647       H  0.37699585  0.22078826  0.72440097     0.11000
H2648       H  0.30309862  0.19055974  0.69199983     0.11000
C2649       C  0.36954157  0.20185139  0.54244316    -0.15100
C2650       C  0.38339316  0.22266983  0.55753029     0.07000
C2651       C  0.40894099  0.21863987  0.56867860    -0.15100
C2652       C  0.42034937  0.19413344  0.56508823    -0.15100
C2653       C  0.40610176  0.17317602  0.55133458     0.07000
C2654       C  0.38071497  0.17720098  0.53979829    -0.15100
H2655       H  0.34979138  0.20440122  0.53382520     0.11000
H2656       H  0.42000427  0.23438684  0.58044868     0.11000
H2657       H  0.44003950  0.19135909  0.57384811     0.11000
H2658       H  0.36961060  0.16128846  0.52849987     0.11000
C2659       C  0.25675781  0.29664807  0.51271696    -0.15100
C2660       C  0.26738653  0.31962280  0.52714053     0.07000
C2661       C  0.26013733  0.34364151  0.01191168    -0.15100
C2662       C  0.24239557  0.34467526  0.98367800    -0.15100
C2663       C  0.23214395  0.32169508  0.96882281     0.07000
C2664       C  0.23963861  0.29764313  0.48374244    -0.15100
H2665       H  0.26256208  0.27777728  0.52282503     0.11000
H2666       H  0.26857003  0.36166100  0.02155145     0.11000
H2667       H  0.23651164  0.36351591  0.97355225     0.11000
H2668       H  0.23148049  0.27956534  0.47387917     0.11000
C2669       C  0.15239145  0.37073297  0.80916153    -0.15100
C2670       C  0.14370523  0.37654524  0.84358330     0.07000
C2671       C  0.12474138  0.39578305  0.84779581    -0.15100
C2672       C  0.11276901  0.40694305  0.81804853    -0.15100
C2673       C  0.11990290  0.39941699  0.78356515     0.07000
C2674       C  0.14071488  0.38224594  0.77938578    -0.15100
H2675       H  0.16618146  0.35519371  0.80514179     0.11000
H2676       H  0.11700642  0.39982529  0.87393850     0.11000
H2677       H  0.09612111  0.41930095  0.82198183     0.11000
H2678       H  0.14584865  0.37533122  0.75312733     0.11000
C2679       C  0.18578267  0.29784244  0.55640963    -0.15100
C2680       C  0.16185881  0.30280192  0.54003416     0.07000
C2681       C  0.14019967  0.28870211  0.55082463    -0.15100
C2682       C  0.14314243  0.26718934  0.57301589    -0.15100
C2683       C  0.16762915  0.26011624  0.58579070     0.07000
C2684       C  0.18863970  0.27662693  0.57942137    -0.15100
H2685       H  0.20284210  0.30834959  0.54794043     0.11000
H2686       H  0.12169286  0.29196199  0.53823009     0.11000
H2687       H  0.12631146  0.25555443  0.57931392     0.11000
H2688       H  0.20743904  0.27218667  0.59034454     0.11000
C2689       C  0.14045761  0.25025625  0.81051299    -0.15100
C2690       C  0.16181486  0.25151249  0.83352106     0.07000
C2691       C  0.17986333  0.23116881  0.83295195    -0.15100
C2692       C  0.17764293  0.21114900  0.80777668    -0.15100
C2693       C  0.15687126  0.21068497  0.78374425     0.07000
C2694       C  0.13786849  0.22988486  0.78621901    -0.15100
H2695       H  0.12575246  0.26519538  0.81104768     0.11000
H2696       H  0.19613859  0.23128660  0.85100284     0.11000
H2697       H  0.19315984  0.19718896  0.80516096     0.11000
H2698       H  0.12237674  0.23062467  0.76688132     0.11000
C2699       C  0.99283824  0.89361465  0.69075050    -0.15100
C2700       C  0.99780405  0.91755506  0.70769446     0.07000
C2701       C  0.98023729  0.93806136  0.70397289    -0.15100
C2702       C  0.95979076  0.93564406  0.68004008    -0.15100
C2703       C  0.95649791  0.91250717  0.66045499     0.07000
C2704       C  0.97201713  0.89097337  0.66777308    -0.15100
H2705       H  0.00539291  0.87702149  0.69473404     0.11000
H2706       H  0.98313173  0.95628618  0.71802276     0.11000
H2707       H  0.94826327  0.95266883  0.67398106     0.11000
H2708       H  0.97011919  0.87321678  0.65230624     0.11000
C2709       C  0.04571379  0.93136621  0.93133038    -0.15100
C2710       C  0.04650792  0.90930112  0.90915819     0.07000
C2711       C  0.02780859  0.88981483  0.91323051    -0.15100
C2712       C  0.00707926  0.89363695  0.93612689    -0.15100
C2713       C  0.00507863  0.91670027  0.95622669     0.07000
C2714       C  0.02529882  0.93489261  0.95506245    -0.15100
H2715       H  0.05944716  0.94709508  0.92764913     0.11000
H2716       H  0.02752901  0.87309068  0.89557689     0.11000
H2717       H  0.99237473  0.87864542  0.93768034     0.11000
H2718       H  0.02470115  0.95235570  0.97125110     0.11000
C2719       C  0.13128603  0.11119484  0.59254762    -0.15100
C2720       C  0.14742841  0.13295226  0.58779862     0.07000
C2721       C  0.15358826  0.14069816  0.55301256    -0.15100
C2722       C  0.14192575  0.12853357  0.52369961    -0.15100
C2723       C  0.12349798  0.10876772  0.52865715     0.07000
C2724       C  0.11915905  0.09939745  0.56321901    -0.15100
H2725       H  0.12548742  0.10547080  0.61907034     0.11000
H2726       H  0.16521930  0.15799003  0.54866425     0.11000
H2727       H  0.14490452  0.13673839  0.49750361     0.11000
H2728       H  0.10433138  0.08488513  0.56785662     0.11000
C2729       C  0.07724023  0.20197729  0.93314974    -0.15100
C2730       C  0.09310933  0.18018801  0.93838701     0.07000
C2731       C  0.11967568  0.18373193  0.94328135    -0.15100
C2732       C  0.13025743  0.20868827  0.94320845    -0.15100
C2733       C  0.11454695  0.23042644  0.93722737     0.07000
C2734       C  0.08799705  0.22697241  0.93191864    -0.15100
H2735       H  0.05665223  0.19961691  0.92961116     0.11000
H2736       H  0.13222048  0.16721867  0.94778016     0.11000
H2737       H  0.15087962  0.21093973  0.94657155     0.11000
H2738       H  0.07567503  0.24357329  0.92680125     0.11000
C2739       C  0.04890979  0.01126432  0.88701202    -0.15100
C2740       C  0.07233965  0.02056023  0.90104702     0.07000
C2741       C  0.09535700  0.01302819  0.88424050    -0.15100
C2742       C  0.09497985  0.99582677  0.85516876    -0.15100
C2743       C  0.07152540  0.98660380  0.84114971     0.07000
C2744       C  0.04849241  0.99483268  0.85719782    -0.15100
H2745       H  0.03076381  0.01748563  0.89829232     0.11000
H2746       H  0.11367085  0.02059466  0.89353473     0.11000
H2747       H  0.11306452  0.98930480  0.84399889     0.11000
H2748       H  0.03011634  0.98748628  0.84781652     0.11000
C2749       C  0.99566008  0.11115834  0.55732449    -0.15100
C2750       C  0.99813927  0.08760982  0.53840613     0.07000
C2751       C  0.97824751  0.06909166  0.54041550    -0.15100
C2752       C  0.95771804  0.07292352  0.56395127    -0.15100
C2753       C  0.95641690  0.09565853  0.58488685     0.07000
C2754       C  0.97479465  0.11530251  0.57983724    -0.15100
H2755       H  0.01011903  0.12634746  0.55515831     0.11000
H2756       H  0.97922567  0.05119832  0.52516118     0.11000
H2757       H  0.94427196  0.05705649  0.56845573     0.11000
H2758       H  0.97475965  0.13253205  0.59656758     0.11000
C2759       C  0.02793710  0.11588677  0.83045325    -0.15100
C2760       C  0.04488294  0.09513951  0.83578697     0.07000
C2761       C  0.04243272  0.07250779  0.81489041    -0.15100
C2762       C  0.02198524  0.06988680  0.79096279    -0.15100
C2763       C  0.00347789  0.08963329  0.78842336     0.07000
C2764       C  0.00716548  0.11301920  0.80737949    -0.15100
H2765       H  0.02897746  0.13309344  0.84717546     0.11000
H2766       H  0.05485758  0.05591315  0.81966014     0.11000
H2767       H  0.01999901  0.05207517  0.77568594     0.11000
H2768       H  0.99377015  0.12906624  0.80471268     0.11000
C2769       C  0.57060008  0.12767771  0.56666791    -0.15100
C2770       C  0.57417928  0.15427480  0.55938220     0.07000
C2771       C  0.55293889  0.16943366  0.54910079    -0.15100
C2772       C  0.52853542  0.15796858  0.54562330    -0.15100
C2773       C  0.52492641  0.13146482  0.55376756     0.07000
C2774       C  0.54614711  0.11646606  0.56437102    -0.15100
H2775       H  0.58664741  0.11566234  0.57493900     0.11000
H2776       H  0.55529135  0.19002362  0.54347753     0.11000
H2777       H  0.51245307  0.16980892  0.53698387     0.11000
H2778       H  0.54391433  0.09587621  0.57011117     0.11000
C2779       C  0.68335373  0.22690531  0.91635008    -0.15100
C2780       C  0.66497061  0.24687214  0.91487348     0.07000
C2781       C  0.64178307  0.24394061  0.93374094    -0.15100
C2782       C  0.63789656  0.22257897  0.95586034    -0.15100
C2783       C  0.65755330  0.20437084  0.96073956     0.07000
C2784       C  0.67980956  0.20591666  0.93959687    -0.15100
H2785       H  0.70091756  0.22821085  0.90095821     0.11000
H2786       H  0.62669250  0.25841774  0.93183934     0.11000
H2787       H  0.62095971  0.22219276  0.97268097     0.11000
H2788       H  0.69556491  0.19245121  0.94389320     0.11000
C2789       C  0.68073916  0.27389347  0.66618158    -0.15100
C2790       C  0.66257484  0.25363253  0.66426536     0.07000
C2791       C  0.63990639  0.25541530  0.68457592    -0.15100
C2792       C  0.63635049  0.27593574  0.70829197    -0.15100
C2793       C  0.65569114  0.29465764  0.71292169     0.07000
C2794       C  0.67748902  0.29408898  0.69080076    -0.15100
H2795       H  0.69793495  0.27344131  0.64994030     0.11000
H2796       H  0.62499998  0.24065588  0.68258413     0.11000
H2797       H  0.61987035  0.27545501  0.72594801     0.11000
H2798       H  0.69308627  0.30785842  0.69497521     0.11000
C2799       C  0.62553482  0.10795822  0.65023542    -0.15100
C2800       C  0.64430681  0.12740816  0.65533982     0.07000
C2801       C  0.65269435  0.13274760  0.69013112    -0.15100
C2802       C  0.64087401  0.12058656  0.71935240    -0.15100
C2803       C  0.62010896  0.10332275  0.71428117     0.07000
C2804       C  0.61336244  0.09621613  0.67942629    -0.15100
H2805       H  0.61805956  0.10418091  0.62382898     0.11000
H2806       H  0.66639173  0.14835219  0.69489108     0.11000
H2807       H  0.64578387  0.12713856  0.74590677     0.11000
H2808       H  0.59680625  0.08374561  0.67477773     0.11000
C2809       C  0.92998176  0.13055944  0.93601578    -0.15100
C2810       C  0.92745525  0.15776127  0.93905926     0.07000
C2811       C  0.94973117  0.17324754  0.94201775    -0.15100
C2812       C  0.97404673  0.16163665  0.94292303    -0.15100
C2813       C  0.97646688  0.13448487  0.93972090     0.07000
C2814       C  0.95431350  0.11904714  0.93590382    -0.15100
H2815       H  0.91314780  0.11819977  0.93318778     0.11000
H2816       H  0.94831881  0.19427797  0.94396462     0.11000
H2817       H  0.99098182  0.17380975  0.94620347     0.11000
H2818       H  0.95579912  0.09800922  0.93408501     0.11000
C2819       C  0.84850911  0.13605134  0.81023836    -0.15100
C2820       C  0.85910674  0.13184478  0.84418174     0.07000
C2821       C  0.87966761  0.11422630  0.84737250    -0.15100
C2822       C  0.89083956  0.10291829  0.81711000    -0.15100
C2823       C  0.88161889  0.10875843  0.78286083     0.07000
C2824       C  0.85954389  0.12446881  0.77988754    -0.15100
H2825       H  0.83337930  0.15033535  0.80678786     0.11000
H2826       H  0.88893024  0.11145609  0.87291198     0.11000
H2827       H  0.90843791  0.09182585  0.82020052     0.11000
H2828       H  0.85268378  0.13024305  0.75385762     0.11000
C2829       C  0.82092294  0.20902458  0.56183224    -0.15100
C2830       C  0.84270808  0.20842750  0.53968010     0.07000
C2831       C  0.86139199  0.22797809  0.54303505    -0.15100
C2832       C  0.85713114  0.24922669  0.56523343    -0.15100
C2833       C  0.83457293  0.25082353  0.58573298     0.07000
C2834       C  0.81708567  0.22990321  0.58521483    -0.15100
H2835       H  0.80575610  0.19464701  0.55856548     0.11000
H2836       H  0.87778956  0.22847680  0.52522955     0.11000
H2837       H  0.87151462  0.26456537  0.56610150     0.11000
H2838       H  0.79999759  0.23025926  0.60167859     0.11000
C2839       C  0.81801468  0.27648510  0.83468786    -0.15100
C2840       C  0.83791702  0.25822266  0.83808075     0.07000
C2841       C  0.86101999  0.26236483  0.81932483    -0.15100
C2842       C  0.86336539  0.28297440  0.79534656    -0.15100
C2843       C  0.84246325  0.29947863  0.78902498     0.07000
C2844       C  0.82014558  0.29676852  0.80992682    -0.15100
H2845       H  0.80037305  0.27426856  0.84972141     0.11000
H2846       H  0.87717854  0.24926161  0.82259180     0.11000
H2847       H  0.88040373  0.28412944  0.77879978     0.11000
H2848       H  0.80344388  0.30878488  0.80458340     0.11000
C2849       C  0.75924189  0.15739617  0.48484808    -0.15100
C2850       C  0.76838865  0.18110599  0.97066016     0.07000
C2851       C  0.75946947  0.20443760  0.98607634    -0.15100
C2852       C  0.74212419  0.20410421  0.01478905    -0.15100
C2853       C  0.73258168  0.18044221  0.52855109     0.07000
C2854       C  0.74115248  0.15708689  0.51275720    -0.15100
H2855       H  0.76624988  0.13904137  0.47445389     0.11000
H2856       H  0.76672804  0.22306045  0.97685040     0.11000
H2857       H  0.73539899  0.22251479  0.02535125     0.11000
H2858       H  0.73369263  0.13851835  0.52189529     0.11000
C2859       C  0.64013866  0.38056388  0.97113486    -0.15100
C2860       C  0.61953861  0.39785629  0.96580274     0.07000
C2861       C  0.61321508  0.40500313  0.93080035    -0.15100
C2862       C  0.62558865  0.39327204  0.90174707    -0.15100
C2863       C  0.64408397  0.37370806  0.90711118     0.07000
C2864       C  0.65209169  0.36836046  0.94206822    -0.15100
H2865       H  0.64476488  0.37397455  0.99773628     0.11000
H2866       H  0.59681466  0.41752169  0.92588282     0.11000
H2867       H  0.61837620  0.39707737  0.87522253     0.11000
H2868       H  0.66558700  0.35269702  0.94704627     0.11000
C2869       C  0.47039488  0.38613755  0.91866916    -0.15100
C2870       C  0.45188293  0.40544812  0.91299911     0.07000
C2871       C  0.45245628  0.42811804  0.93412406    -0.15100
C2872       C  0.47264028  0.43236170  0.95826370    -0.15100
C2873       C  0.49289404  0.41437210  0.96049069     0.07000
C2874       C  0.49094744  0.39074583  0.94165259    -0.15100
H2875       H  0.47082725  0.36892165  0.90192565     0.11000
H2876       H  0.43880350  0.44367332  0.92927606     0.11000
H2877       H  0.47320081  0.45025897  0.97356154     0.11000
H2878       H  0.50568057  0.37593496  0.94408076     0.11000
C2879       C  0.53944812  0.42868517  0.68343625    -0.15100
C2880       C  0.54132217  0.40704101  0.66059934     0.07000
C2881       C  0.52324391  0.38687292  0.66344270    -0.15100
C2882       C  0.50243258  0.38923386  0.68652367    -0.15100
C2883       C  0.49968941  0.41149890  0.70806818     0.07000
C2884       C  0.51897463  0.43072805  0.70739909    -0.15100
H2885       H  0.55257216  0.44502323  0.68050922     0.11000
H2886       H  0.52364096  0.37059885  0.64503174     0.11000
H2887       H  0.48836211  0.37359862  0.68731755     0.11000
H2888       H  0.51772220  0.44771169  0.72444010     0.11000
C2889       C  0.61911986  0.32117577  0.55170217    -0.15100
C2890       C  0.59258831  0.32422227  0.55744536     0.07000
C2891       C  0.57748252  0.30219459  0.56520894    -0.15100
C2892       C  0.58895047  0.27760277  0.56829587    -0.15100
C2893       C  0.61548705  0.27458683  0.56231328     0.07000
C2894       C  0.63040370  0.29653493  0.55364213    -0.15100
H2895       H  0.63108333  0.33784064  0.54517587     0.11000
H2896       H  0.55694629  0.30410062  0.56947844     0.11000
H2897       H  0.57712885  0.26093542  0.57527738     0.11000
H2898       H  0.65096163  0.29474775  0.54944401     0.11000
C2899       C  0.47244593  0.33941606  0.55133015    -0.15100
C2900       C  0.47518392  0.36604624  0.55939295     0.07000
C2901       C  0.45338822  0.38065063  0.56847079    -0.15100
C2902       C  0.42908414  0.36899820  0.56847504    -0.15100
C2903       C  0.42628406  0.34239675  0.56036405     0.07000
C2904       C  0.44818291  0.32754324  0.55243859    -0.15100
H2905       H  0.48905635  0.32788724  0.54395574     0.11000
H2906       H  0.45502862  0.40130486  0.57420231     0.11000
H2907       H  0.41247905  0.38070329  0.57533423     0.11000
H2908       H  0.44644051  0.30692886  0.54652785     0.11000
C2909       C  0.61565007  0.59573608  0.81763429    -0.15100
C2910       C  0.62250043  0.60456175  0.78355778     0.07000
C2911       C  0.64312633  0.62222671  0.78050839    -0.15100
C2912       C  0.65475520  0.63294046  0.81100351    -0.15100
C2913       C  0.64619475  0.62598082  0.84515462     0.07000
C2914       C  0.62751369  0.60619599  0.84811668    -0.15100
H2915       H  0.59921249  0.58288587  0.82084727     0.11000
H2916       H  0.64816806  0.63008786  0.75471763     0.11000
H2917       H  0.66834707  0.64884900  0.80786671     0.11000
H2918       H  0.61980977  0.60119247  0.87397905     0.11000
C2919       C  0.46124230  0.56768620  0.81832630    -0.15100
C2920       C  0.45849390  0.59060432  0.83846008     0.07000
C2921       C  0.47487692  0.61176667  0.83231567    -0.15100
C2922       C  0.49559429  0.60903605  0.80929610    -0.15100
C2923       C  0.49973169  0.58534086  0.79135307     0.07000
C2924       C  0.48162467  0.56517925  0.79448111    -0.15100
H2925       H  0.44914900  0.55086809  0.82367715     0.11000
H2926       H  0.47348224  0.62927040  0.84837501     0.11000
H2927       H  0.50862132  0.62539752  0.80592138     0.11000
H2928       H  0.48392879  0.54715891  0.77980416     0.11000
C2929       C  0.50538198  0.60813540  0.56110400    -0.15100
C2930       C  0.50332280  0.58457938  0.54205106     0.07000
C2931       C  0.52376969  0.56677461  0.54351732    -0.15100
C2932       C  0.54450774  0.57125679  0.56658990    -0.15100
C2933       C  0.54535612  0.59387645  0.58776648     0.07000
C2934       C  0.52643511  0.61293285  0.58316993    -0.15100
H2935       H  0.49049232  0.62283344  0.55935723     0.11000
H2936       H  0.52314026  0.54893329  0.52810714     0.11000
H2937       H  0.55845425  0.55585274  0.57070209     0.11000
H2938       H  0.52620660  0.63007664  0.60005936     0.11000
C2939       C  0.54703741  0.51050285  0.63817034    -0.15100
C2940       C  0.57068251  0.51892761  0.65259422     0.07000
C2941       C  0.59351886  0.51030402  0.63635868    -0.15100
C2942       C  0.59272880  0.49296362  0.60741624    -0.15100
C2943       C  0.56907280  0.48464792  0.59289987     0.07000
C2944       C  0.54624285  0.49390472  0.60848686    -0.15100
H2945       H  0.52905071  0.51750961  0.64906811     0.11000
H2946       H  0.61202597  0.51708992  0.64602952     0.11000
H2947       H  0.61065655  0.48562529  0.59672666     0.11000
H2948       H  0.52767994  0.48726790  0.59882874     0.11000
C2949       C  0.88734828  0.60335620  0.68291860    -0.15100
C2950       C  0.87914432  0.60912842  0.71765539     0.07000
C2951       C  0.85652714  0.62364956  0.72209977    -0.15100
C2952       C  0.84419030  0.63481997  0.69260859    -0.15100
C2953       C  0.85412580  0.63152050  0.65807141     0.07000
C2954       C  0.87471137  0.61413059  0.65332510    -0.15100
H2955       H  0.90518642  0.59286442  0.67883340     0.11000
H2956       H  0.85029055  0.62911147  0.74853692     0.11000
H2957       H  0.82873993  0.64856961  0.69720536     0.11000
H2958       H  0.88329406  0.61178406  0.62729793     0.11000
C2959       C  0.00547628  0.61630823  0.69168193    -0.15100
C2960       C  0.00291773  0.59360961  0.71244226     0.07000
C2961       C  0.02233438  0.57466830  0.71088824    -0.15100
C2962       C  0.04245929  0.57723240  0.68632024    -0.15100
C2963       C  0.04393014  0.59917541  0.66389947     0.07000
C2964       C  0.02595807  0.61921037  0.66808914    -0.15100
H2965       H  0.99135007  0.63177657  0.69324062     0.11000
H2966       H  0.02126874  0.55738602  0.72736543     0.11000
H2967       H  0.05551900  0.56101934  0.68250373     0.11000
H2968       H  0.02603792  0.63577534  0.65018863     0.11000
C2969       C  0.97149677  0.62052598  0.92176440    -0.15100
C2970       C  0.95317901  0.60092567  0.91585160     0.07000
C2971       C  0.95420508  0.57803060  0.93644814    -0.15100
C2972       C  0.97470863  0.57375510  0.95993276    -0.15100
C2973       C  0.99472253  0.59207420  0.96239475     0.07000
C2974       C  0.99233356  0.61596336  0.94430644    -0.15100
H2975       H  0.97154317  0.63798207  0.90551586     0.11000
H2976       H  0.94071351  0.56227095  0.93143059     0.11000
H2977       H  0.97564623  0.55562646  0.97463865     0.11000
H2978       H  0.00687654  0.63102967  0.94708130     0.11000
C2979       C  0.85907389  0.37979360  0.52770666    -0.15100
C2980       C  0.87743877  0.39966672  0.53256663     0.07000
C2981       C  0.88144619  0.40943259  0.56706046    -0.15100
C2982       C  0.86899079  0.39803053  0.59641269    -0.15100
C2983       C  0.85272819  0.37629963  0.59186650     0.07000
C2984       C  0.84698422  0.36812246  0.55704068    -0.15100
H2985       H  0.85643692  0.37112767  0.00166309     0.11000
H2986       H  0.89621937  0.42401196  0.57172007     0.11000
H2987       H  0.87462292  0.40404392  0.62292605     0.11000
H2988       H  0.83541250  0.35076648  0.55278114     0.11000
C2989       C  0.02838151  0.39265992  0.58071380    -0.15100
C2990       C  0.04543784  0.41324761  0.58732245     0.07000
C2991       C  0.04305228  0.43647392  0.56769795    -0.15100
C2992       C  0.02229627  0.43997263  0.54447709    -0.15100
C2993       C  0.00344701  0.42048136  0.54133789     0.07000
C2994       C  0.00730027  0.39638843  0.55839560    -0.15100
H2995       H  0.02943706  0.37489847  0.59627462     0.11000
H2996       H  0.05561046  0.45290339  0.57331803     0.11000
H2997       H  0.02025438  0.45830528  0.53046860     0.11000
H2998       H  0.99370911  0.38050259  0.55500451     0.11000
C2999       C  0.95821782  0.43518066  0.81788775    -0.15100
C3000       C  0.95635556  0.41297655  0.83969879     0.07000
C3001       C  0.97387402  0.39261438  0.83523637    -0.15100
C3002       C  0.99436415  0.39534971  0.81175608    -0.15100
C3003       C  0.99728274  0.41820255  0.79144193     0.07000
C3004       C  0.97835437  0.43760732  0.79344551    -0.15100
H3005       H  0.94543771  0.45158024  0.82204325     0.11000
H3006       H  0.97340685  0.37584360  0.85277300     0.11000
H3007       H  0.00812404  0.37957147  0.80979379     0.11000
H3008       H  0.97974011  0.45502436  0.77727287     0.11000
C3009       C  0.92172336  0.30568278  0.94285718    -0.15100
C3010       C  0.90623867  0.32810130  0.94372590     0.07000
C3011       C  0.87931829  0.32527455  0.94478824    -0.15100
C3012       C  0.86807343  0.30051121  0.94453649    -0.15100
C3013       C  0.88353101  0.27820004  0.94232911     0.07000
C3014       C  0.91042071  0.28091040  0.94156952    -0.15100
H3015       H  0.94252565  0.30733734  0.94254684     0.11000
H3016       H  0.86694488  0.34221830  0.94608090     0.11000
H3017       H  0.84726420  0.29881505  0.94451120     0.11000
H3018       H  0.92262038  0.26386471  0.93959928     0.11000
C3019       C  0.95136174  0.50146241  0.89662770    -0.15100
C3020       C  0.92826893  0.48921219  0.90694165     0.07000
C3021       C  0.90563679  0.49543896  0.88801125    -0.15100
C3022       C  0.90606305  0.51358227  0.85994868    -0.15100
C3023       C  0.92932496  0.52508736  0.84890801     0.07000
C3024       C  0.95192817  0.51885008  0.86778627    -0.15100
H3025       H  0.96928784  0.49673011  0.90986556     0.11000
H3026       H  0.88761018  0.48594491  0.89461870     0.11000
H3027       H  0.88818510  0.51867096  0.84683343     0.11000
H3028       H  0.97001236  0.52816851  0.86103457     0.11000
C3029       C  0.02833137  0.34717994  0.95165783    -0.15100
C3030       C  0.02475004  0.37365233  0.94347373     0.07000
C3031       C  0.04614664  0.38890417  0.93390631    -0.15100
C3032       C  0.07075583  0.37793186  0.93291828    -0.15100
C3033       C  0.07427321  0.35136973  0.94054451     0.07000
C3034       C  0.05282771  0.33602664  0.94962320    -0.15100
H3035       H  0.01214071  0.33510449  0.95944705     0.11000
H3036       H  0.04392703  0.40947053  0.92809763     0.11000
H3037       H  0.08695450  0.39006155  0.92536670     0.11000
H3038       H  0.05506124  0.31544355  0.95531019     0.11000
C3039       C  0.05157423  0.67894840  0.81143639    -0.15100
C3040       C  0.07281384  0.66222739  0.81493758     0.07000
C3041       C  0.06880495  0.63523257  0.81751545    -0.15100
C3042       C  0.04397435  0.62505829  0.81684536    -0.15100
C3043       C  0.02277726  0.64162780  0.81266052     0.07000
C3044       C  0.02664346  0.66862228  0.80961587    -0.15100
H3045       H  0.05430543  0.69986580  0.80970467     0.11000
H3046       H  0.08486994  0.62199401  0.82072626     0.11000
H3047       H  0.04136145  0.60411009  0.81847730     0.11000
H3048       H  0.01043012  0.68160483  0.80595887     0.11000
C3049       C  0.12446814  0.61020360  0.90203768    -0.15100
C3050       C  0.14389085  0.62917112  0.90574077     0.07000
C3051       C  0.15314156  0.63474010  0.94009698    -0.15100
C3052       C  0.14163502  0.62340256  0.97020840    -0.15100
C3053       C  0.12035148  0.60660030  0.96659302     0.07000
C3054       C  0.11270352  0.59918298  0.93214164    -0.15100
H3055       H  0.11621013  0.60632671  0.87609211     0.11000
H3056       H  0.16733592  0.65003454  0.94386334     0.11000
H3057       H  0.14725622  0.63031700  0.99632153     0.11000
H3058       H  0.09573001  0.58711115  0.92852877     0.11000
C3059       C  0.09448482  0.78163307  0.82535146    -0.15100
C3060       C  0.12025941  0.77775961  0.81535623     0.07000
C3061       C  0.13459812  0.79882576  0.80206546    -0.15100
C3062       C  0.12343424  0.82347738  0.79926064    -0.15100
C3063       C  0.09757316  0.82723864  0.80876312     0.07000
C3064       C  0.08308971  0.80612683  0.82151888    -0.15100
H3065       H  0.08313056  0.76566247  0.83590126     0.11000
H3066       H  0.15459645  0.79635876  0.79465502     0.11000
H3067       H  0.13483815  0.83950960  0.78898386     0.11000
H3068       H  0.06309629  0.80868399  0.82889351     0.11000
C3069       C  0.34740458  0.62971099  0.56046479    -0.15100
C3070       C  0.35659746  0.62287706  0.59436185     0.07000
C3071       C  0.37623015  0.60419602  0.59691032    -0.15100
C3072       C  0.38829689  0.59468344  0.56623212    -0.15100
C3073       C  0.38072677  0.60341724  0.53241378     0.07000
C3074       C  0.35929818  0.61994934  0.52970269    -0.15100
H3075       H  0.33301310  0.64484698  0.55776859     0.11000
H3076       H  0.38430549  0.59935333  0.62262834     0.11000
H3077       H  0.40530806  0.58266200  0.56908235     0.11000
H3078       H  0.35370260  0.62769797  0.50405449     0.11000
C3079       C  0.42953472  0.62596032  0.68300112    -0.15100
C3080       C  0.42417087  0.65133599  0.69478884     0.07000
C3081       C  0.44450459  0.66716327  0.70691081    -0.15100
C3082       C  0.46974295  0.65757495  0.70775511    -0.15100
C3083       C  0.47519393  0.63234016  0.69523602     0.07000
C3084       C  0.45482331  0.61667086  0.68279054    -0.15100
H3085       H  0.41424696  0.61358896  0.67288420     0.11000
H3086       H  0.44083398  0.68692591  0.71572105     0.11000
H3087       H  0.48502696  0.66994122  0.71791299     0.11000
H3088       H  0.45836947  0.59698743  0.67356452     0.11000
C3089       C  0.25613665  0.65099033  0.73491383    -0.15100
C3090       C  0.26491166  0.67366202  0.71757024     0.07000
C3091       C  0.25648968  0.69797740  0.73044901    -0.15100
C3092       C  0.24030133  0.69960743  0.76017558    -0.15100
C3093       C  0.23133416  0.67696432  0.77729167     0.07000
C3094       C  0.23909497  0.65260699  0.76383698    -0.15100
H3095       H  0.26274487  0.63198840  0.72632805     0.11000
H3096       H  0.26340075  0.71591018  0.71858740     0.11000
H3097       H  0.23395030  0.71866537  0.76890387     0.11000
H3098       H  0.23176064  0.63478815  0.77556335     0.11000
C3099       C  0.40548869  0.77293108  0.68424895    -0.15100
C3100       C  0.37879635  0.76985117  0.68848829     0.07000
C3101       C  0.36339571  0.79202146  0.69334933    -0.15100
C3102       C  0.37451281  0.81693844  0.69336591    -0.15100
C3103       C  0.40126662  0.82000125  0.68931682     0.07000
C3104       C  0.41667422  0.79774391  0.68521354    -0.15100
H3105       H  0.41768049  0.75609302  0.68008101     0.11000
H3106       H  0.34269851  0.79011465  0.69596159     0.11000
H3107       H  0.36226809  0.83377845  0.69717125     0.11000
H3108       H  0.43736230  0.79956764  0.68239789     0.11000
C3109       C  0.05688571  0.83503054  0.54163109    -0.15100
C3110       C  0.07690798  0.84932751  0.55739725     0.07000
C3111       C  0.07181494  0.87380681  0.57234170    -0.15100
C3112       C  0.04695704  0.88395036  0.57167592    -0.15100
C3113       C  0.02694453  0.87003496  0.55514876     0.07000
C3114       C  0.03211517  0.84552366  0.53995638    -0.15100
H3115       H  0.06050065  0.81593439  0.53038058     0.11000
H3116       H  0.08698465  0.88482141  0.58523335     0.11000
H3117       H  0.04355486  0.90298742  0.58322554     0.11000
H3118       H  0.01702192  0.83451096  0.52678702     0.11000
C3119       C  0.12695626  0.89765041  0.64864508    -0.15100
C3120       C  0.14590360  0.87837829  0.65289694     0.07000
C3121       C  0.15471708  0.87277008  0.68735904    -0.15100
C3122       C  0.14300573  0.88422520  0.71711037    -0.15100
C3123       C  0.12190616  0.90102597  0.71292351     0.07000
C3124       C  0.11479738  0.90861869  0.67840070    -0.15100
H3125       H  0.11944028  0.90191137  0.62244640     0.11000
H3126       H  0.16865474  0.85737305  0.69144556     0.11000
H3127       H  0.14827841  0.87739129  0.74337074     0.11000
H3128       H  0.09807538  0.92087236  0.67440780     0.11000
C3129       C  0.14148590  0.74974110  0.68493096    -0.15100
C3130       C  0.16413255  0.75196312  0.66463523     0.07000
C3131       C  0.18213365  0.73159737  0.66574430    -0.15100
C3132       C  0.17871282  0.71078161  0.68935128    -0.15100
C3133       C  0.15693729  0.70966596  0.71149540     0.07000
C3134       C  0.13779567  0.72863048  0.70777218    -0.15100
H3135       H  0.12668839  0.76455772  0.68354314     0.11000
H3136       H  0.19931311  0.73232339  0.64948532     0.11000
H3137       H  0.19419183  0.69686025  0.69276351     0.11000
H3138       H  0.12133244  0.72871629  0.72545147     0.11000
C3139       C  0.18412295  0.79523638  0.93960772    -0.15100
C3140       C  0.16225677  0.79666643  0.96152026     0.07000
C3141       C  0.14289647  0.77782018  0.95807214    -0.15100
C3142       C  0.14627969  0.75664897  0.93541773    -0.15100
C3143       C  0.16875389  0.75432691  0.91484137     0.07000
C3144       C  0.18712547  0.77443899  0.91585583    -0.15100
H3145       H  0.19980032  0.80902039  0.94304031     0.11000
H3146       H  0.12643485  0.77792961  0.97576804     0.11000
H3147       H  0.13127082  0.74194940  0.93422005     0.11000
H3148       H  0.20420748  0.77350657  0.89942837     0.11000
C3149       C  0.09263054  0.72878672  0.56077691    -0.15100
C3150       C  0.11958949  0.73073859  0.56052383     0.07000
C3151       C  0.13447770  0.70804688  0.55846025    -0.15100
C3152       C  0.12257333  0.68361851  0.55756835    -0.15100
C3153       C  0.09557200  0.68155074  0.55790940     0.07000
C3154       C  0.08067904  0.70436207  0.55890309    -0.15100
H3155       H  0.08087735  0.74615820  0.56264460     0.11000
H3156       H  0.15532070  0.70918862  0.55889264     0.11000
H3157       H  0.13449671  0.66634339  0.55623389     0.11000
H3158       H  0.05983935  0.70327761  0.55878453     0.11000
C3159       C  0.43719093  0.85780577  0.90351979    -0.15100
C3160       C  0.42397149  0.84618402  0.93202136     0.07000
C3161       C  0.43621620  0.84405016  0.96511560    -0.15100
C3162       C  0.46144938  0.85324019  0.96950144    -0.15100
C3163       C  0.47452693  0.86516964  0.94104057     0.07000
C3164       C  0.46211158  0.86744364  0.90807311    -0.15100
H3165       H  0.42810288  0.85965442  0.87769014     0.11000
H3166       H  0.42646528  0.83488596  0.48727297     0.11000
H3167       H  0.47049041  0.85161170  0.49536252     0.11000
H3168       H  0.47164731  0.87675193  0.88583108     0.11000
C3169       C  0.34224139  0.86602857  0.80380746    -0.15100
C3170       C  0.35105411  0.87029625  0.83874712     0.07000
C3171       C  0.37002499  0.88946114  0.84446573    -0.15100
C3172       C  0.38262264  0.90109650  0.81552796    -0.15100
C3173       C  0.37584129  0.89443319  0.78049958     0.07000
C3174       C  0.35442042  0.87816427  0.77493479    -0.15100
H3175       H  0.32795758  0.85105417  0.79855759     0.11000
H3176       H  0.37764687  0.89269830  0.87093203     0.11000
H3177       H  0.39953997  0.91299407  0.82048041     0.11000
H3178       H  0.34929181  0.87214532  0.74822587     0.11000
C3179       C  0.35325789  0.72740690  0.82560480    -0.15100
C3180       C  0.32962594  0.73863651  0.83619841     0.07000
C3181       C  0.30666347  0.72567226  0.82800294    -0.15100
C3182       C  0.30737618  0.70405921  0.80516987    -0.15100
C3183       C  0.33099558  0.69540718  0.79079862     0.07000
C3184       C  0.35392845  0.70559439  0.80391844    -0.15100
H3185       H  0.37155212  0.73612412  0.83290040     0.11000
H3186       H  0.28833961  0.73328069  0.83689198     0.11000
H3187       H  0.28940122  0.69617728  0.79521503     0.11000
H3188       H  0.37227311  0.69940604  0.79312663     0.11000
C3189       C  0.32194812  0.78252325  0.55185935    -0.15100
C3190       C  0.34491532  0.78251642  0.53217640     0.07000
C3191       C  0.36447740  0.76501069  0.54085735    -0.15100
C3192       C  0.36023990  0.74594243  0.56622934    -0.15100
C3193       C  0.33651381  0.74431832  0.58400712     0.07000
C3194       C  0.31784002  0.76358119  0.57809740    -0.15100
H3195       H  0.30637883  0.79553250  0.04478985     0.11000
H3196       H  0.38207172  0.76442217  0.52539829     0.11000
H3197       H  0.37551201  0.73210075  0.57144082     0.11000
H3198       H  0.29978422  0.76322383  0.59245857     0.11000
C3199       C  0.26233396  0.84312421  0.98379215    -0.15100
C3200       C  0.27200578  0.81828450  0.97519735     0.07000
C3201       C  0.26363952  0.79690663  0.49585999    -0.15100
C3202       C  0.24639925  0.80008946  0.52401045    -0.15100
C3203       C  0.23599704  0.82462652  0.53196618     0.07000
C3204       C  0.24409394  0.84614963  0.01133341    -0.15100
H3205       H  0.26872396  0.86011940  0.96915239     0.11000
H3206       H  0.27094353  0.77747085  0.49093993     0.11000
H3207       H  0.24017769  0.78290842  0.53840486     0.11000
H3208       H  0.23595735  0.86525747  0.01611073     0.11000
C3209       C  0.41953220  0.72500991  0.92815791    -0.15100
C3210       C  0.39527856  0.72714512  0.91194522     0.07000
C3211       C  0.38207104  0.70426094  0.90208337    -0.15100
C3212       C  0.39192921  0.67981785  0.90985666    -0.15100
C3213       C  0.41525052  0.67737871  0.92820618     0.07000
C3214       C  0.42946691  0.70017070  0.93636497    -0.15100
H3215       H  0.42991745  0.74233797  0.93641543     0.11000
H3216       H  0.36317725  0.70520760  0.88996041     0.11000
H3217       H  0.38059877  0.66280487  0.90279330     0.11000
H3218       H  0.44766637  0.69883292  0.95034491     0.11000
C3219       C  0.56620173  0.86860962  0.67556525    -0.15100
C3220       C  0.57112348  0.84284843  0.68585444     0.07000
C3221       C  0.55068413  0.82680834  0.69683144    -0.15100
C3222       C  0.52567446  0.83683447  0.69867958    -0.15100
C3223       C  0.52078181  0.86264569  0.68816976     0.07000
C3224       C  0.54120272  0.87830584  0.67618045    -0.15100
H3225       H  0.58168270  0.88112529  0.66648503     0.11000
H3226       H  0.55417307  0.80676763  0.70452467     0.11000
H3227       H  0.51020859  0.82452222  0.70833922     0.11000
H3228       H  0.53798967  0.89839328  0.66846359     0.11000
C3229       C  0.63639321  0.77528090  0.79278694    -0.15100
C3230       C  0.65600504  0.79377007  0.78838417     0.07000
C3231       C  0.67828578  0.79206058  0.80958448    -0.15100
C3232       C  0.68163125  0.77119853  0.83304762    -0.15100
C3233       C  0.66297760  0.75142043  0.83503855     0.07000
C3234       C  0.63993844  0.75415501  0.81561914    -0.15100
H3235       H  0.61952641  0.77562748  0.77577260     0.11000
H3236       H  0.69410840  0.80557215  0.80553505     0.11000
H3237       H  0.69917912  0.76999593  0.84856444     0.11000
H3238       H  0.62470075  0.73975798  0.81774859     0.11000
C3239       C  0.64419375  0.74745395  0.56394470    -0.15100
C3240       C  0.66677005  0.75087579  0.58419152     0.07000
C3241       C  0.68586547  0.73158675  0.58291836    -0.15100
C3242       C  0.68331553  0.71046019  0.55953559    -0.15100
C3243       C  0.66125485  0.70782071  0.53803357     0.07000
C3244       C  0.64133687  0.72597282  0.54149265    -0.15100
H3245       H  0.62867380  0.76149134  0.56534687     0.11000
H3246       H  0.70310410  0.73335865  0.59900498     0.11000
H3247       H  0.69944335  0.69733185  0.55607175     0.11000
H3248       H  0.62469740  0.72502531  0.52408109     0.11000
C3249       C  0.65268782  0.87179627  0.56221439    -0.15100
C3250       C  0.64285972  0.87670346  0.59637035     0.07000
C3251       C  0.62300446  0.89507390  0.59988897    -0.15100
C3252       C  0.61105495  0.90568226  0.56967448    -0.15100
C3253       C  0.61908244  0.89856640  0.53533562     0.07000
C3254       C  0.64104991  0.88281703  0.53197082    -0.15100
H3255       H  0.66739017  0.85708205  0.55861492     0.11000
H3256       H  0.61454746  0.89864405  0.62571570     0.11000
H3257       H  0.59370908  0.91710913  0.57307909     0.11000
H3258       H  0.64714091  0.87634916  0.00593485     0.11000
C3259       C  0.58067619  0.69900594  0.67735070    -0.15100
C3260       C  0.59527907  0.67794738  0.68977207     0.07000
C3261       C  0.62091804  0.68195760  0.70031454    -0.15100
C3262       C  0.63194639  0.70671290  0.69819599    -0.15100
C3263       C  0.61768390  0.72763866  0.68458390     0.07000
C3264       C  0.59195327  0.72365719  0.67421751    -0.15100
H3265       H  0.56077334  0.69624901  0.66947227     0.11000
H3266       H  0.63230557  0.66597762  0.71062545     0.11000
H3267       H  0.65185893  0.70931661  0.70613169     0.11000
H3268       H  0.58062829  0.73958992  0.66363888     0.11000
C3269       C  0.94610536  0.83497256  0.79308554    -0.15100
C3270       C  0.92548394  0.85145464  0.80186381     0.07000
C3271       C  0.93062555  0.87728246  0.81198927    -0.15100
C3272       C  0.95593544  0.88647574  0.81356924    -0.15100
C3273       C  0.97655699  0.87021252  0.80419145     0.07000
C3274       C  0.97142731  0.84442506  0.79360731    -0.15100
H3275       H  0.94259534  0.81481646  0.78583179     0.11000
H3276       H  0.91510299  0.89014397  0.81976014     0.11000
H3277       H  0.95932479  0.90658604  0.82115585     0.11000
H3278       H  0.98699103  0.83162085  0.78582140     0.11000
C3279       C  0.87742618  0.90065330  0.89956516    -0.15100
C3280       C  0.85801362  0.88157945  0.90128828     0.07000
C3281       C  0.84895133  0.87375320  0.93480986    -0.15100
C3282       C  0.86083801  0.88288312  0.96596591    -0.15100
C3283       C  0.88200790  0.89991059  0.96401388     0.07000
C3284       C  0.88941073  0.90965950  0.93068164    -0.15100
H3285       H  0.88545677  0.90617118  0.87408518     0.11000
H3286       H  0.83479871  0.85824343  0.93679345     0.11000
H3287       H  0.85542866  0.87436080  0.99122874     0.11000
H3288       H  0.90625337  0.92207894  0.92845660     0.11000
C3289       C  0.80615618  0.79726720  0.69415952    -0.15100
C3290       C  0.82997710  0.80694296  0.70695735     0.07000
C3291       C  0.85274158  0.79720378  0.69313374    -0.15100
C3292       C  0.85198041  0.77465530  0.67300963    -0.15100
C3293       C  0.82834072  0.76247426  0.66407019     0.07000
C3294       C  0.80531706  0.77500478  0.67253551    -0.15100
H3295       H  0.78828505  0.80480104  0.70473919     0.11000
H3296       H  0.87122832  0.80425192  0.70263353     0.11000
H3297       H  0.87029606  0.76621784  0.66560891     0.11000
H3298       H  0.78695774  0.76660126  0.66492235     0.11000
C3299       C  0.86005458  0.76450609  0.93795438    -0.15100
C3300       C  0.83780110  0.76297172  0.91670415     0.07000
C3301       C  0.82118853  0.74147433  0.92043784    -0.15100
C3302       C  0.82584825  0.72292650  0.94700350    -0.15100
C3303       C  0.84735453  0.72558265  0.96939286     0.07000
C3304       C  0.86488315  0.74588634  0.96371637    -0.15100
H3305       H  0.87383250  0.78025435  0.93488845     0.11000
H3306       H  0.80434450  0.73946496  0.90362709     0.11000
H3307       H  0.81174508  0.70773349  0.95178867     0.11000
H3308       H  0.88121532  0.74857860  0.98136720     0.11000
C3309       C  0.75474561  0.80657762  0.77047185    -0.15100
C3310       C  0.76530712  0.83074139  0.78080965     0.07000
C3311       C  0.75785633  0.85313940  0.76168458    -0.15100
C3312       C  0.74009245  0.85145361  0.73349825    -0.15100
C3313       C  0.73023270  0.82718069  0.72254093     0.07000
C3314       C  0.73776954  0.80479101  0.74148109    -0.15100
H3315       H  0.76054642  0.78879288  0.78373479     0.11000
H3316       H  0.76611067  0.87196866  0.76823324     0.11000
H3317       H  0.73393858  0.86914744  0.72030067     0.11000
H3318       H  0.72976231  0.78589877  0.73469214     0.11000
C3319       C  0.91777025  0.70696223  0.81661755    -0.15100
C3320       C  0.90273349  0.68467514  0.81011304     0.07000
C3321       C  0.87624645  0.68751161  0.80340699    -0.15100
C3322       C  0.86495335  0.71225134  0.80337227    -0.15100
C3323       C  0.87987741  0.73444439  0.81085691     0.07000
C3324       C  0.90636516  0.73159490  0.81750076    -0.15100
H3325       H  0.93827238  0.70527752  0.82146508     0.11000
H3326       H  0.86436106  0.67061996  0.79764076     0.11000
H3327       H  0.84443596  0.71396001  0.79868197     0.11000
H3328       H  0.91821892  0.74846026  0.82355249     0.11000
loop_ 
_geom_bond_atom_site_label_1 
_geom_bond_atom_site_label_2 
_geom_bond_distance 
_geom_bond_site_symmetry_2 
_ccdc_geom_bond_type 
O1           C16   1.255       .  A
O1           Al9   1.862       .  S
C2           O12   1.273       .  A
C2            O3   1.260       .  A
C2         C1626   1.451       .  S
O3           Al5   1.875       .  S
O4            C6   1.261       .  A
O4           Al5   1.907       .  S
Al5          O13   1.907       .  S
Al5          O15   1.927       .  S
Al5          O14   1.788       .  S
C6           O19   1.257       .  A
C6         C1659   1.472       .  S
O7           C17   1.255       .  A
O7           Al9   1.882       .  S
O8           C21   1.270       .  A
O8          Al18   1.935       .  S
Al9          O22   1.904       .  S
Al9          O19   1.896       .  S
Al9          O14   1.767       .  S
O10          C17   1.267       .  A
O10         Al18   1.947       .  S
O11          C20   1.262       .  A
O11         Al18   1.922       .  S
O12         Al18   1.919       .  S
O13          C20   1.268       .  A
O14         Al18   1.789       .  S
O15          C16   1.264       .  A
C16        C1636   1.468       .  S
C17        C1606   1.472       .  S
C20        C1646   1.494       .  S
C21          O22   1.262       .  A
C21        C1616   1.472       .  S
O23          C38   1.257       .  A
O23         Al31   1.877       .  S
C24          O34   1.271       .  A
C24          O25   1.255       .  A
C24        C1566   1.456       .  S
O25         Al27   1.876       .  S
O26          C28   1.260       .  A
O26         Al27   1.890       .  S
Al27         O35   1.910       .  S
Al27         O37   1.915       .  S
Al27         O36   1.792       .  S
C28          O41   1.260       .  A
C28        C1599   1.467       .  S
O29          C39   1.252       .  A
O29         Al31   1.888       .  S
O30          C43   1.274       .  A
O30         Al40   1.941       .  S
Al31         O44   1.910       .  S
Al31         O41   1.899       .  S
Al31         O36   1.775       .  S
O32          C39   1.258       .  A
O32         Al40   1.915       .  S
O33          C42   1.264       .  A
O33         Al40   1.925       .  S
O34         Al40   1.940       .  S
O35          C42   1.270       .  A
O36         Al40   1.790       .  S
O37          C38   1.260       .  A
C38        C1576   1.476       .  S
C39        C1556   1.465       .  S
C42        C1649   1.487       .  S
C43          O44   1.266       .  A
C43        C1586   1.481       .  S
O45          C60   1.262       .  A
O45         Al53   1.884       .  S
C46        O1720   1.252       .  A
C46        O1711   1.264       .  A
C46        C1526   1.449   1_556  S
O47        C1710   1.264       .  A
O47         Al49   1.933       .  S
O48          C50   1.260       .  A
O48         Al49   1.920       .  S
Al49         O57   1.929       .  S
Al49         O59   1.971       .  S
Al49         O58   1.796       .  S
C50          O63   1.252       .  A
C50        C1496   1.472       .  S
O51          C61   1.272       .  A
O51         Al53   1.947       .  S
O52          C65   1.266       .  A
O52         Al62   1.917       .  S
Al53         O66   1.859       .  S
Al53         O63   1.885       .  S
Al53         O58   1.781       .  S
O54          C61   1.260       .  A
O54         Al62   1.884       .  S
O55          C64   1.261       .  A
O55         Al62   1.896       .  S
O56        C1710   1.253       .  A
O56         Al62   1.840       .  S
O57          C64   1.269       .  A
O58         Al62   1.779       .  S
O59          C60   1.277       .  A
C60        C1506   1.483       .  S
C61        C1546   1.476       .  S
C64        C1536   1.500       .  S
C65          O66   1.253       .  A
C65        C1516   1.474       .  S
O67          C82   1.269       .  A
O67         Al75   1.916       .  S
C68        O1742   1.258       .  A
C68        O1733   1.272       .  A
C68        C1476   1.453       .  S
O69        C1732   1.272   1_554  A
O69         Al71   1.932       .  S
O70          C72   1.258       .  A
O70         Al71   1.920       .  S
Al71         O79   1.935       .  S
Al71         O81   1.935       .  S
Al71         O80   1.794       .  S
C72          O85   1.251       .  A
C72        C1446   1.462       .  S
O73          C83   1.259       .  A
O73         Al75   1.896       .  S
O74          C87   1.261       .  A
O74         Al84   1.912       .  S
Al75         O88   1.876       .  S
Al75         O85   1.885       .  S
Al75         O80   1.771       .  S
O76          C83   1.261       .  A
O76         Al84   1.897       .  S
O77          C86   1.269       .  A
O77         Al84   1.910       .  S
O78        C1732   1.258   1_554  A
O78         Al84   1.886       .  S
O79          C86   1.264       .  A
O80         Al84   1.788       .  S
O81          C82   1.275       .  A
C82        C1456   1.478       .  S
C83        C1486   1.465       .  S
C86        C1539   1.496       .  S
C87          O88   1.258       .  A
C87        C1466   1.477       .  S
O89         C104   1.256       .  A
O89         Al97   1.866       .  S
C90         O100   1.273       .  A
C90          O91   1.260       .  A
C90        C1519   1.454       .  S
O91         Al93   1.879       .  S
O92          C94   1.261       .  A
O92         Al93   1.904       .  S
Al93        O101   1.902       .  S
Al93        O103   1.920       .  S
Al93        O102   1.792       .  S
C94         O107   1.258       .  A
C94        C1436   1.473       .  S
O95         C105   1.255       .  A
O95         Al97   1.889       .  S
O96         C109   1.271       .  A
O96        Al106   1.937       .  S
Al97        O110   1.908       .  S
Al97        O107   1.900       .  S
Al97        O102   1.768       .  S
O98         C105   1.266       .  A
O98        Al106   1.944       .  S
O99         C108   1.263       .  A
O99        Al106   1.927       .  S
O100       Al106   1.923       .  S
O101        C108   1.266       .  A
O102       Al106   1.793       .  S
O103        C104   1.261       .  A
C104       C1529   1.466       .  S
C105       C1416   1.475       .  S
C108       C1426   1.492       .  S
C109        O110   1.264       .  A
C109       C1406   1.476       .  S
O111        C126   1.256       .  A
O111       Al119   1.871       .  S
C112        O122   1.271       .  A
C112        O113   1.256       .  A
C112       C1469   1.457       .  S
O113       Al115   1.878       .  S
O114        C116   1.261       .  A
O114       Al115   1.897       .  S
Al115       O123   1.910       .  S
Al115       O125   1.918       .  S
Al115       O124   1.794       .  S
C116        O129   1.260       .  A
C116       C1396   1.470       .  S
O117        C127   1.254       .  A
O117       Al119   1.886       .  S
O118        C131   1.275       .  A
O118       Al128   1.946       .  S
Al119       O132   1.907       .  S
Al119       O129   1.903       .  S
Al119       O124   1.774       .  S
O120        C127   1.259       .  A
O120       Al128   1.906       .  S
O121        C130   1.263       .  A
O121       Al128   1.918       .  S
O122       Al128   1.939       .  S
O123        C130   1.270       .  A
O124       Al128   1.788       .  S
O125        C126   1.261       .  A
C126       C1479   1.472       .  S
C127       C1376   1.466       .  S
C130       C1429   1.487       .  S
C131        O132   1.264       .  A
C131       C1386   1.483       .  S
O133       C1812   1.267       .  A
O133      Al1805   1.915   1_554  S
C134        O144   1.257       .  A
C134        O135   1.271       .  A
C134       C1336   1.451       .  S
O135       Al137   1.928       .  S
O136        C138   1.259       .  A
O136       Al137   1.918       .  S
Al137       O145   1.927       .  S
Al137       O147   1.938       .  S
Al137       O146   1.791       .  S
C138        O151   1.254       .  A
C138       C1346   1.474       .  S
O139        C149   1.261       .  A
O139       Al141   1.906       .  S
O140       C1817   1.259       .  A
O140       Al150   1.908       .  S
Al141       O151   1.890       .  S
Al141      O1797   1.915       .  S
Al141      O1818   1.871       .  S
Al141       O146   1.774       .  S
O142        C149   1.262       .  A
O142       Al150   1.901       .  S
O143        C152   1.268       .  A
O143       Al150   1.911       .  S
O144       Al150   1.879       .  S
O145        C152   1.264       .  A
O146       Al150   1.795       .  S
O147        C148   1.274       .  A
C148       O1797   1.267       .  A
C148       C2980   1.481       .  S
C149       C1366   1.474   1_655  S
C152       C1356   1.495       .  S
C153        O154   1.257       .  A
C153       O1804   1.259   1_554  A
C153       C1329   1.469   1_655  S
O154      Al1805   1.871   1_554  S
O155        C170   1.267       .  A
O155       Al163   1.912       .  S
C156        O166   1.259       .  A
C156        O157   1.273       .  A
C156       C1306   1.455       .  S
O157       Al159   1.936       .  S
O158        C160   1.259       .  A
O158       Al159   1.924       .  S
Al159       O167   1.927       .  S
Al159       O169   1.935       .  S
Al159       O168   1.794       .  S
C160        O173   1.254       .  A
C160       C1656   1.473       .  S
O161        C171   1.259       .  A
O161       Al163   1.902       .  S
O162        C175   1.262       .  A
O162       Al172   1.921       .  S
Al163       O176   1.871       .  S
Al163       O173   1.890       .  S
Al163       O168   1.775       .  S
O164        C171   1.257       .  A
O164       Al172   1.880       .  S
O165        C174   1.268       .  A
O165       Al172   1.909       .  S
O166       Al172   1.878       .  S
O167        C174   1.262       .  A
O168       Al172   1.790       .  S
O169        C170   1.275       .  A
C170       C1286   1.479       .  S
C171       C1379   1.461   1_655  S
C174       C1359   1.491       .  S
C175        O176   1.257       .  A
C175       C1296   1.478   1_655  S
O177        C192   1.267       .  A
O177       Al185   1.919       .  S
C178        O188   1.258       .  A
C178        O179   1.272       .  A
C178       C1269   1.452       .  S
O179       Al181   1.932       .  S
O180        C182   1.259       .  A
O180       Al181   1.915       .  S
Al181       O189   1.921       .  S
Al181       O191   1.941       .  S
Al181       O190   1.793       .  S
C182        O195   1.255       .  A
C182       C1596   1.463       .  S
O183        C193   1.260       .  A
O183       Al185   1.912       .  S
O184        C197   1.260       .  A
O184       Al194   1.902       .  S
Al185       O198   1.867       .  S
Al185       O195   1.890       .  S
Al185       O190   1.774       .  S
O186        C193   1.260       .  A
O186       Al194   1.898       .  S
O187        C196   1.265       .  A
O187       Al194   1.905       .  S
O188       Al194   1.873       .  S
O189        C196   1.261       .  A
O190       Al194   1.789       .  S
O191        C192   1.275       .  A
C192       C1246   1.482       .  S
C193       C1419   1.480       .  S
C196       C1276   1.490       .  S
C197        O198   1.257       .  A
C197       C1259   1.463       .  S
O199       C1878   1.265       .  A
O199      Al1871   1.907       .  S
C200        O210   1.254       .  A
C200        O201   1.271       .  A
C200       C1216   1.454       .  S
O201       Al203   1.937       .  S
O202        C204   1.259       .  A
O202       Al203   1.915       .  S
Al203       O211   1.924       .  S
Al203       O213   1.939       .  S
Al203       O212   1.788       .  S
C204        O217   1.255       .  A
C204       C1226   1.473       .  S
O205        C215   1.261       .  A
O205       Al207   1.901       .  S
O206       C1883   1.259   1_554  A
O206       Al216   1.917       .  S
Al207       O217   1.894       .  S
Al207      O1863   1.907   1_554  S
Al207      O1884   1.875   1_554  S
Al207       O212   1.772       .  S
O208        C215   1.262       .  A
O208       Al216   1.898       .  S
O209        C218   1.271       .  A
O209       Al216   1.911       .  S
O210       Al216   1.878       .  S
O211        C218   1.265       .  A
O212       Al216   1.798       .  S
O213        C214   1.274   1_554  A
C214       O1863   1.265       .  A
C214       C2860   1.481       .  S
C215       C1236   1.468       .  S
C218       C1279   1.489       .  S
C219        O220   1.256       .  A
C219       O1870   1.259       .  A
C219       C1209   1.474       .  S
O220      Al1871   1.875       .  S
O221        C236   1.257       .  A
O221       Al229   1.872       .  S
C222       O1896   1.272   1_554  A
C222       O1887   1.258   1_554  A
C222       C1166   1.451       .  S
O223       C1886   1.258       .  A
O223       Al225   1.879       .  S
O224        C226   1.259       .  A
O224       Al225   1.895       .  S
Al225       O233   1.913       .  S
Al225       O235   1.918       .  S
Al225       O234   1.796       .  S
C226        O239   1.258       .  A
C226       C1349   1.467       .  S
O227        C237   1.253       .  A
O227       Al229   1.890       .  S
O228        C241   1.277       .  A
O228       Al238   1.945       .  S
Al229       O242   1.918       .  S
Al229       O239   1.897       .  S
Al229       O234   1.776       .  S
O230        C237   1.258       .  A
O230       Al238   1.919       .  S
O231        C240   1.263       .  A
O231       Al238   1.932       .  S
O232       C1886   1.272       .  A
O232       Al238   1.932       .  S
O233        C240   1.269       .  A
O234       Al238   1.794       .  S
O235        C236   1.262       .  A
C236       C1176   1.477       .  S
C237       C1146   1.475       .  S
C240       C1186   1.499       .  S
C241        O242   1.268       .  A
C241       C1156   1.485       .  S
O243        C258   1.257       .  A
O243       Al251   1.870       .  S
C244       O1918   1.269       .  A
C244       O1909   1.259       .  A
C244       C1119   1.448       .  S
O245       C1908   1.259   1_554  A
O245       Al247   1.877       .  S
O246        C248   1.260       .  A
O246       Al247   1.897       .  S
Al247       O255   1.913       .  S
Al247       O257   1.919       .  S
Al247       O256   1.792       .  S
C248        O261   1.259       .  A
C248       C1229   1.473       .  S
O249        C259   1.255       .  A
O249       Al251   1.894       .  S
O250        C263   1.274       .  A
O250       Al260   1.937       .  S
Al251       O264   1.913       .  S
Al251       O261   1.906       .  S
Al251       O256   1.775       .  S
O252        C259   1.261       .  A
O252       Al260   1.923       .  S
O253        C262   1.263       .  A
O253       Al260   1.931       .  S
O254       C1908   1.269   1_554  A
O254       Al260   1.921       .  S
O255        C262   1.269       .  A
O256       Al260   1.793       .  S
O257        C258   1.263       .  A
C258       C1126   1.473       .  S
C259       C1106   1.472       .  S
C262       C1189   1.500       .  S
C263        O264   1.267       .  A
C263       C1136   1.478       .  S
O265       C1944   1.266       .  A
O265      Al1937   1.912   1_554  S
C266        O276   1.258       .  A
C266        O267   1.269       .  A
C266       C1096   1.448       .  S
O267       Al269   1.923       .  S
O268        C270   1.258       .  A
O268       Al269   1.910       .  S
Al269       O277   1.917       .  S
Al269       O279   1.932       .  S
Al269       O278   1.793       .  S
C270        O283   1.253       .  A
C270       C1066   1.465       .  S
O271        C281   1.259       .  A
O271       Al273   1.899       .  S
O272       C1949   1.261       .  A
O272       Al282   1.919       .  S
Al273       O283   1.886       .  S
Al273      O1929   1.911       .  S
Al273      O1950   1.872       .  S
Al273       O278   1.771       .  S
O274        C281   1.260       .  A
O274       Al282   1.897       .  S
O275        C284   1.268       .  A
O275       Al282   1.908       .  S
O276       Al282   1.879       .  S
O277        C284   1.262       .  A
O278       Al282   1.793       .  S
O279        C280   1.273       .  A
C280       O1929   1.266       .  A
C280       C2723   1.476       .  S
C281       C1149   1.467   1_455  S
C284       C1076   1.488       .  S
C285        O286   1.257       .  A
C285       O1936   1.261   1_554  A
C285       C1086   1.475   1_455  S
O286      Al1937   1.872   1_554  S
O287        C302   1.268       .  A
O287       Al295   1.915       .  S
C288        O298   1.258       .  A
C288        O289   1.272       .  A
C288       C1046   1.453       .  S
O289       Al291   1.933       .  S
O290        C292   1.258       .  A
O290       Al291   1.914       .  S
Al291       O299   1.916       .  S
Al291       O301   1.934       .  S
Al291       O300   1.792       .  S
C292        O305   1.255       .  A
C292       C1399   1.467       .  S
O293        C303   1.260       .  A
O293       Al295   1.905       .  S
O294        C307   1.258       .  A
O294       Al304   1.898       .  S
Al295       O308   1.871       .  S
Al295       O305   1.895       .  S
Al295       O300   1.773       .  S
O296        C303   1.260       .  A
O296       Al304   1.895       .  S
O297        C306   1.265       .  A
O297       Al304   1.906       .  S
O298       Al304   1.877       .  S
O299        C306   1.260       .  A
O300       Al304   1.790       .  S
O301        C302   1.274       .  A
C302       C1459   1.477       .  S
C303       C1609   1.474   1_455  S
C306       C1079   1.485       .  S
C307        O308   1.258       .  A
C307       C1036   1.462   1_455  S
O309        C324   1.259       .  A
O309       Al317   1.877       .  S
C310       O1984   1.270   1_554  A
C310       O1975   1.259   1_554  A
C310       C1016   1.453       .  S
O311       C1974   1.259       .  A
O311       Al313   1.876       .  S
O312        C314   1.257       .  A
O312       Al313   1.885       .  S
Al313       O321   1.902       .  S
Al313       O323   1.917       .  S
Al313       O322   1.788       .  S
C314        O327   1.257       .  A
C314       C1069   1.462       .  S
O315        C325   1.255       .  A
O315       Al317   1.888       .  S
O316        C329   1.272       .  A
O316       Al326   1.933       .  S
Al317       O330   1.908       .  S
Al317       O327   1.896       .  S
Al317       O322   1.775       .  S
O318        C325   1.262       .  A
O318       Al326   1.932       .  S
O319        C328   1.264       .  A
O319       Al326   1.931       .  S
O320       C1974   1.270       .  A
O320       Al326   1.927       .  S
O321        C328   1.266       .  A
O322       Al326   1.795       .  S
O323        C324   1.262       .  A
C324       C1026   1.476       .  S
C325       C1369   1.474       .  S
C328        C999   1.493       .  S
C329        O330   1.265       .  A
C329       C1006   1.475       .  S
O331        C346   1.256       .  A
O331       Al339   1.870       .  S
C332       O2006   1.273       .  A
C332       O1997   1.256       .  A
C332        C966   1.454       .  S
O333       C1996   1.256   1_554  A
O333       Al335   1.872       .  S
O334        C336   1.260       .  A
O334       Al335   1.895       .  S
Al335       O343   1.915       .  S
Al335       O345   1.914       .  S
Al335       O344   1.795       .  S
C336        O349   1.260       .  A
C336        C986   1.473       .  S
O337        C347   1.253       .  A
O337       Al339   1.892       .  S
O338        C351   1.276       .  A
O338       Al348   1.945       .  S
Al339       O352   1.912       .  S
Al339       O349   1.901       .  S
Al339       O344   1.774       .  S
O340        C347   1.257       .  A
O340       Al348   1.912       .  S
O341        C350   1.262       .  A
O341       Al348   1.917       .  S
O342       C1996   1.273   1_554  A
O342       Al348   1.942       .  S
O343        C350   1.270       .  A
O344       Al348   1.790       .  S
O345        C346   1.261       .  A
C346        C976   1.473       .  S
C347       C1239   1.469       .  S
C350        C996   1.492       .  S
C351        O352   1.267       .  A
C351        C956   1.484       .  S
O353        C368   1.257       .  A
O353      Al2025   1.874       .  S
C354        O364   1.272       .  A
C354        O355   1.255       .  A
C354       C1299   1.458       .  S
O355       Al357   1.878       .  S
O356        C358   1.261       .  A
O356       Al357   1.898       .  S
Al357       O365   1.911       .  S
Al357       O367   1.919       .  S
Al357       O366   1.791       .  S
C358        O371   1.260       .  A
C358        C946   1.469   1_455  S
O359        C369   1.256       .  A
O359       Al361   1.891       .  S
O360        C373   1.275   1_554  A
O360       Al370   1.945       .  S
Al361       O371   1.907       .  S
Al361      O2017   1.874   1_554  S
Al361      O2038   1.905   1_554  S
Al361       O366   1.776       .  S
O362        C369   1.260       .  A
O362       Al370   1.913       .  S
O363        C372   1.265       .  A
O363       Al370   1.924       .  S
O364       Al370   1.944       .  S
O365        C372   1.270       .  A
O366       Al370   1.788       .  S
O367       C2032   1.260   1_554  A
C368       O2031   1.261       .  A
C368       C1309   1.473   1_455  S
C369       C1489   1.473       .  S
C372        C936   1.490       .  S
C373       O2038   1.264       .  A
C373       C3053   1.483       .  S
O374       C2037   1.264       .  A
O374      Al2025   1.905       .  S
O375        C390   1.257       .  A
O375       Al383   1.869       .  S
C376        O386   1.271       .  A
C376        O377   1.260       .  A
C376       C1326   1.450       .  S
O377       Al379   1.877       .  S
O378        C380   1.259       .  A
O378       Al379   1.891       .  S
Al379       O387   1.908       .  S
Al379       O389   1.911       .  S
Al379       O388   1.791       .  S
C380        O393   1.259       .  A
C380        C926   1.472   1_455  S
O381        C391   1.255       .  A
O381       Al383   1.896       .  S
O382        C395   1.274       .  A
O382       Al392   1.932       .  S
Al383       O396   1.913       .  S
Al383       O393   1.903       .  S
Al383       O388   1.774       .  S
O384        C391   1.258       .  A
O384       Al392   1.913       .  S
O385        C394   1.260       .  A
O385       Al392   1.917       .  S
O386       Al392   1.926       .  S
O387        C394   1.266       .  A
O388       Al392   1.793       .  S
O389        C390   1.261       .  A
C390       C1339   1.471   1_455  S
C391        C916   1.471       .  S
C394        C939   1.491       .  S
C395        O396   1.267       .  A
C395       C1009   1.475       .  S
O397        C412   1.259       .  A
O397      Al2069   1.875       .  S
C398        O408   1.265       .  A
C398        O399   1.258       .  A
C398       C1039   1.445       .  S
O399       Al401   1.877       .  S
O400        C402   1.260   1_655  A
O400       Al401   1.894       .  S
Al401       O409   1.909       .  S
Al401       O411   1.919       .  S
Al401       O410   1.788       .  S
C402        O415   1.258   1_455  A
C402       C1449   1.470       .  S
O403        C413   1.253       .  A
O403       Al405   1.883       .  S
O404        C417   1.269   1_554  A
O404       Al414   1.927       .  S
Al405       O415   1.897       .  S
Al405      O2061   1.875   1_554  S
Al405      O2082   1.912   1_554  S
Al405       O410   1.779       .  S
O406        C413   1.264       .  A
O406       Al414   1.920       .  S
O407        C416   1.263       .  A
O407       Al414   1.926       .  S
O408       Al414   1.911       .  S
O409        C416   1.269       .  A
O410       Al414   1.790       .  S
O411       C2076   1.263   1_554  A
C412       O2075   1.263       .  A
C412       C1049   1.474   1_655  S
C413        C896   1.476       .  S
C416        C906   1.493       .  S
C417       O2082   1.265       .  A
C417       C3283   1.475       .  S
O418       C2081   1.265       .  A
O418      Al2069   1.912       .  S
O419        C434   1.256       .  A
O419       Al427   1.867       .  S
C420        O430   1.273       .  A
C420        O421   1.257       .  A
C420       C1089   1.455       .  S
O421       Al423   1.874       .  S
O422        C424   1.260   1_655  A
O422       Al423   1.896       .  S
Al423       O431   1.910       .  S
Al423       O433   1.907       .  S
Al423       O432   1.793       .  S
C424        O437   1.259   1_455  A
C424        C886   1.476       .  S
O425        C435   1.254       .  A
O425       Al427   1.891       .  S
O426        C439   1.278       .  A
O426       Al436   1.951       .  S
Al427       O440   1.908       .  S
Al427       O437   1.902       .  S
Al427       O432   1.776       .  S
O428        C435   1.259       .  A
O428       Al436   1.913       .  S
O429        C438   1.262       .  A
O429       Al436   1.924       .  S
O430       Al436   1.939       .  S
O431        C438   1.268       .  A
O432       Al436   1.791       .  S
O433        C434   1.260       .  A
C434       C1099   1.466   1_655  S
C435        C876   1.470       .  S
C438        C909   1.497       .  S
C439        O440   1.265       .  A
C439       C1159   1.485       .  S
O441        C456   1.261       .  A
O441       Al449   1.874       .  S
C442       O2116   1.251       .  A
C442       O2107   1.266       .  A
C442       C1639   1.451       .  S
O443       C2106   1.266       .  A
O443       Al445   1.940       .  S
O444        C446   1.260       .  A
O444       Al445   1.921       .  S
Al445       O453   1.934       .  S
Al445       O455   1.986       .  S
Al445       O454   1.793       .  S
C446        O459   1.251       .  A
C446        C949   1.473       .  S
O447        C457   1.271       .  A
O447       Al449   1.940       .  S
O448        C461   1.265       .  A
O448       Al458   1.913       .  S
Al449       O462   1.855       .  S
Al449       O459   1.879       .  S
Al449       O454   1.779       .  S
O450        C457   1.260       .  A
O450       Al458   1.887       .  S
O451        C460   1.261       .  A
O451       Al458   1.896       .  S
O452       C2106   1.251       .  A
O452       Al458   1.833       .  S
O453        C460   1.270       .  A
O454       Al458   1.780       .  S
O455        C456   1.280       .  A
C456       C1289   1.485       .  S
C457        C899   1.472       .  S
C460        C866   1.502       .  S
C461        O462   1.253       .  A
C461       C1629   1.472       .  S
O463        C478   1.268       .  A
O463       Al471   1.912       .  S
C464       O2138   1.257   1_554  A
C464       O2129   1.274   1_554  A
C464       C1579   1.457       .  S
O465       C2128   1.274       .  A
O465       Al467   1.942       .  S
O466        C468   1.258       .  A
O466       Al467   1.919       .  S
Al467       O475   1.934       .  S
Al467       O477   1.945       .  S
Al467       O476   1.793       .  S
C468        O481   1.252       .  A
C468        C846   1.469       .  S
O469        C479   1.260       .  A
O469       Al471   1.904       .  S
O470        C483   1.260       .  A
O470       Al480   1.908       .  S
Al471       O484   1.872       .  S
Al471       O481   1.883       .  S
Al471       O476   1.773       .  S
O472        C479   1.262       .  A
O472       Al480   1.905       .  S
O473        C482   1.270       .  A
O473       Al480   1.917       .  S
O474       C2128   1.257       .  A
O474       Al480   1.882       .  S
O475        C482   1.264       .  A
O476       Al480   1.789       .  S
O477        C478   1.277       .  A
C478       C1249   1.482       .  S
C479        C856   1.476       .  S
C482        C869   1.499       .  S
C483        O484   1.256       .  A
C483       C1569   1.473       .  S
O485        C500   1.266       .  A
O485       Al493   1.911       .  S
C486        O496   1.257       .  A
C486        O487   1.271       .  A
C486        C839   1.456       .  S
O487       Al489   1.936       .  S
O488        C490   1.261       .  A
O488       Al489   1.928       .  S
Al489       O497   1.928       .  S
Al489       O499   1.930       .  S
Al489       O498   1.793       .  S
C490        O503   1.255       .  A
C490       C1439   1.476       .  S
O491        C501   1.262       .  A
O491       Al493   1.913       .  S
O492        C505   1.261       .  A
O492       Al502   1.922       .  S
Al493       O506   1.877       .  S
Al493       O503   1.887       .  S
Al493       O498   1.773       .  S
O494        C501   1.259       .  A
O494       Al502   1.884       .  S
O495        C504   1.269       .  A
O495       Al502   1.906       .  S
O496       Al502   1.880       .  S
O497        C504   1.265       .  A
O498       Al502   1.789       .  S
O499        C500   1.272       .  A
C500       C1509   1.476       .  S
C501       C1559   1.469       .  S
C504        C816   1.490       .  S
C505        O506   1.257       .  A
C505        C829   1.479       .  S
O507       C2186   1.266       .  A
O507      Al2179   1.910       .  S
C508        O518   1.258       .  A
C508        O509   1.271       .  A
C508        C806   1.453       .  S
O509       Al511   1.932       .  S
O510        C512   1.259       .  A
O510       Al511   1.917       .  S
Al511       O519   1.919       .  S
Al511       O521   1.936       .  S
Al511       O520   1.793       .  S
C512        O525   1.254       .  A
C512        C989   1.466       .  S
O513        C523   1.260       .  A
O513       Al515   1.910       .  S
O514       C2191   1.260   1_554  A
O514       Al524   1.913       .  S
Al515       O525   1.890       .  S
Al515      O2171   1.910   1_554  S
Al515      O2192   1.869   1_554  S
Al515       O520   1.774       .  S
O516        C523   1.260       .  A
O516       Al524   1.893       .  S
O517        C526   1.268       .  A
O517       Al524   1.909       .  S
O518       Al524   1.875       .  S
O519        C526   1.262       .  A
O520       Al524   1.793       .  S
O521        C522   1.273   1_554  A
C522       O2171   1.266       .  A
C522       C2450   1.479       .  S
C523       C1109   1.472       .  S
C526        C819   1.490       .  S
C527        O528   1.256       .  A
C527       O2178   1.260       .  A
C527        C796   1.467       .  S
O528      Al2179   1.869       .  S
O529        C544   1.266       .  A
O529       Al537   1.911       .  S
C530        O540   1.258       .  A
C530        O531   1.270       .  A
C530        C979   1.453       .  S
O531       Al533   1.928       .  S
O532        C534   1.260       .  A
O532       Al533   1.915       .  S
Al533       O541   1.934       .  S
Al533       O543   1.938       .  S
Al533       O542   1.792       .  S
C534        O547   1.254       .  A
C534        C756   1.467       .  S
O535        C545   1.260       .  A
O535       Al537   1.902       .  S
O536        C549   1.260       .  A
O536       Al546   1.909       .  S
Al537       O550   1.875       .  S
Al537       O547   1.888       .  S
Al537       O542   1.772       .  S
O538        C545   1.261       .  A
O538       Al546   1.897       .  S
O539        C548   1.266       .  A
O539       Al546   1.901       .  S
O540       Al546   1.887       .  S
O541        C548   1.264       .  A
O542       Al546   1.789       .  S
O543        C544   1.274       .  A
C544        C789   1.479       .  S
C545        C779   1.470       .  S
C548        C766   1.490       .  S
C549        O550   1.257       .  A
C549        C969   1.472       .  S
O551        C566   1.267       .  A
O551       Al559   1.907       .  S
C552        O562   1.257       .  A
C552        O553   1.272       .  A
C552       C1029   1.455       .  S
O553       Al555   1.936       .  S
O554        C556   1.255       .  A
O554       Al555   1.909       .  S
Al555       O563   1.911       .  S
Al555       O565   1.934       .  S
Al555       O564   1.792       .  S
C556        O569   1.252       .  A
C556        C889   1.468       .  S
O557        C567   1.258       .  A
O557       Al559   1.888       .  S
O558        C571   1.257       .  A
O558       Al568   1.903       .  S
Al559       O572   1.873       .  S
Al559       O569   1.896       .  S
Al559       O564   1.775       .  S
O560        C567   1.263       .  A
O560       Al568   1.905       .  S
O561        C570   1.269       .  A
O561       Al568   1.915       .  S
O562       Al568   1.880       .  S
O563        C570   1.260       .  A
O564       Al568   1.798       .  S
O565        C566   1.274       .  A
C566       C1056   1.477       .  S
C567        C919   1.469       .  S
C570        C769   1.485       .  S
C571        O572   1.257       .  A
C571       C1019   1.468       .  S
O573        C588   1.257       .  A
O573      Al2245   1.875   1_554  S
C574        O584   1.273       .  A
C574        O575   1.255       .  A
C574        C826   1.458       .  S
O575       Al577   1.878       .  S
O576        C578   1.261       .  A
O576       Al577   1.891       .  S
Al577       O585   1.912       .  S
Al577       O587   1.918       .  S
Al577       O586   1.793       .  S
C578        O591   1.262       .  A
C578       C1499   1.474       .  S
O579        C589   1.257       .  A
O579       Al581   1.902       .  S
O580        C593   1.275       .  A
O580       Al590   1.943       .  S
Al581       O591   1.916       .  S
Al581      O2237   1.875       .  S
Al581      O2258   1.911       .  S
Al581       O586   1.777       .  S
O582        C589   1.260       .  A
O582       Al590   1.919       .  S
O583        C592   1.265       .  A
O583       Al590   1.930       .  S
O584       Al590   1.945       .  S
O585        C592   1.270       .  A
O586       Al590   1.789       .  S
O587       C2252   1.260       .  A
C588       O2251   1.260   1_554  A
C588        C836   1.473       .  S
C589        C859   1.478       .  S
C592        C746   1.495       .  S
C593       O2258   1.267       .  A
C593       C3253   1.483       .  S
O594       C2257   1.267       .  A
O594      Al2245   1.911   1_554  S
O595        C610   1.257       .  A
O595       Al603   1.874       .  S
C596        O606   1.269       .  A
C596        O597   1.257       .  A
C596        C799   1.450       .  S
O597       Al599   1.873       .  S
O598        C600   1.258       .  A
O598       Al599   1.886       .  S
Al599       O607   1.909       .  S
Al599       O609   1.918       .  S
Al599       O608   1.792       .  S
C600        O613   1.259       .  A
C600        C759   1.465       .  S
O601        C611   1.255       .  A
O601       Al603   1.892       .  S
O602        C615   1.272       .  A
O602       Al612   1.933       .  S
Al603       O616   1.910       .  S
Al603       O613   1.903       .  S
Al603       O608   1.777       .  S
O604        C611   1.260       .  A
O604       Al612   1.920       .  S
O605        C614   1.263       .  A
O605       Al612   1.925       .  S
O606       Al612   1.926       .  S
O607        C614   1.268       .  A
O608       Al612   1.793       .  S
O609        C610   1.262       .  A
C610        C809   1.474       .  S
C611        C736   1.473       .  S
C614        C749   1.494       .  S
C615        O616   1.266       .  A
C615       C1139   1.477       .  S
O617        C632   1.264       .  A
O617       Al625   1.901       .  S
C618        O628   1.257       .  A
C618        O619   1.272       .  A
C618       C1179   1.458       .  S
O619       Al621   1.938       .  S
O620        C622   1.261       .  A
O620       Al621   1.925       .  S
Al621       O629   1.936       .  S
Al621       O631   1.947       .  S
Al621       O630   1.791       .  S
C622        O635   1.254       .  A
C622        C929   1.469       .  S
O623        C633   1.258       .  A
O623       Al625   1.898       .  S
O624        C637   1.260       .  A
O624       Al634   1.914       .  S
Al625       O638   1.872       .  S
Al625       O635   1.886       .  S
Al625       O630   1.773       .  S
O626        C633   1.260       .  A
O626       Al634   1.894       .  S
O627        C636   1.267       .  A
O627       Al634   1.906       .  S
O628       Al634   1.880       .  S
O629        C636   1.265       .  A
O630       Al634   1.792       .  S
O631        C632   1.276       .  A
C632       C1319   1.481       .  S
C633        C879   1.465       .  S
C636        C726   1.493       .  S
C637        O638   1.256       .  A
C637       C1169   1.471       .  S
O639        C654   1.266       .  A
O639       Al647   1.911       .  S
C640        O650   1.257       .  A
C640        O641   1.270       .  A
C640       C1129   1.452       .  S
O641       Al643   1.928       .  S
O642        C644   1.260       .  A
O642       Al643   1.920       .  S
Al643       O651   1.929       .  S
Al643       O653   1.939       .  S
Al643       O652   1.792       .  S
C644        O657   1.254       .  A
C644        C716   1.473       .  S
O645        C655   1.260       .  A
O645       Al647   1.906       .  S
O646        C659   1.260       .  A
O646       Al656   1.912       .  S
Al647       O660   1.872       .  S
Al647       O657   1.893       .  S
Al647       O652   1.775       .  S
O648        C655   1.261       .  A
O648       Al656   1.896       .  S
O649        C658   1.269       .  A
O649       Al656   1.911       .  S
O650       Al656   1.878       .  S
O651        C658   1.264       .  A
O652       Al656   1.795       .  S
O653        C654   1.274       .  A
C654       C1199   1.480       .  S
C655        C739   1.471       .  S
C658        C729   1.495       .  S
C659        O660   1.257       .  A
C659       C1116   1.470       .  S
O661        C676   1.257       .  A
O661      Al2333   1.872   1_554  S
C662        O672   1.267       .  A
C662        O663   1.258       .  A
C662       C1256   1.445       .  S
O663       Al665   1.877       .  S
O664        C666   1.259       .  A
O664       Al665   1.892       .  S
Al665       O673   1.912       .  S
Al665       O675   1.920       .  S
Al665       O674   1.794       .  S
C666        O679   1.259       .  A
C666        C849   1.465       .  S
O667        C677   1.254       .  A
O667       Al669   1.894       .  S
O668        C681   1.272       .  A
O668       Al678   1.933       .  S
Al669       O679   1.897       .  S
Al669      O2325   1.872       .  S
Al669      O2346   1.911       .  S
Al669       O674   1.778       .  S
O670        C677   1.263       .  A
O670       Al678   1.920       .  S
O671        C680   1.264       .  A
O671       Al678   1.932       .  S
O672       Al678   1.914       .  S
O673        C680   1.269       .  A
O674       Al678   1.788       .  S
O675       C2340   1.262       .  A
C676       O2339   1.262   1_554  A
C676       C1266   1.475       .  S
C677       C1549   1.482       .  S
C680        C706   1.499       .  S
C681       O2346   1.266       .  A
C681       C3073   1.478       .  S
O682       C2345   1.266       .  A
O682      Al2333   1.911   1_554  S
O683        C698   1.258       .  A
O683       Al691   1.873       .  S
C684        O694   1.272       .  A
C684        O685   1.259       .  A
C684       C1206   1.454       .  S
O685       Al687   1.878       .  S
O686        C688   1.258       .  A
O686       Al687   1.891       .  S
Al687       O695   1.910       .  S
Al687       O697   1.911       .  S
Al687       O696   1.791       .  S
C688        O701   1.259       .  A
C688        C719   1.475       .  S
O689        C699   1.255       .  A
O689       Al691   1.893       .  S
O690        C703   1.277       .  A
O690       Al700   1.947       .  S
Al691       O704   1.916       .  S
Al691       O701   1.908       .  S
Al691       O696   1.778       .  S
O692        C699   1.259       .  A
O692       Al700   1.923       .  S
O693        C702   1.262       .  A
O693       Al700   1.930       .  S
O694       Al700   1.932       .  S
O695        C702   1.267       .  A
O696       Al700   1.796       .  S
O697        C698   1.262       .  A
C698       C1219   1.474       .  S
C699        C776   1.472       .  S
C702        C709   1.499       .  S
C703        O704   1.267       .  A
C703        C959   1.484       .  S
C705        C706   1.409       .  A
C705        C710   1.408       .  A
C705        H711   1.083       .  S
C706        C707   1.409       .  A
C707        C708   1.410       .  A
C707        H712   1.083       .  S
C708        C709   1.409       .  A
C708        H713   1.083       .  S
C709        C710   1.409       .  A
C710        H714   1.083       .  S
C715        C716   1.403       .  A
C715        C720   1.395       .  A
C715        H721   1.083       .  S
C716        C717   1.405       .  A
C717        C718   1.401       .  A
C717        H722   1.083       .  S
C718        C719   1.405       .  A
C718        H723   1.083       .  S
C719        C720   1.404       .  A
C720        H724   1.083       .  S
C725        C726   1.408       .  A
C725        C730   1.404       .  A
C725        H731   1.083       .  S
C726        C727   1.407       .  A
C727        C728   1.409       .  A
C727        H732   1.083       .  S
C728        C729   1.410       .  A
C728        H733   1.083       .  S
C729        C730   1.407       .  A
C730        H734   1.083       .  S
C735        C736   1.404       .  A
C735        C740   1.400       .  A
C735        H741   1.083       .  S
C736        C737   1.404       .  A
C737        C738   1.395       .  A
C737        H742   1.083       .  S
C738        C739   1.402       .  A
C738        H743   1.083       .  S
C739        C740   1.405       .  A
C740        H744   1.083       .  S
C745        C746   1.409       .  A
C745        C750   1.407   1_565  A
C745        H751   1.083       .  S
C746        C747   1.408       .  A
C747        C748   1.406   1_565  A
C747        H752   1.083       .  S
C748        C749   1.409       .  A
C748        H753   1.083       .  S
C749        C750   1.407       .  A
C750        H754   1.083       .  S
C755        C756   1.404       .  A
C755        C760   1.399       .  A
C755        H761   1.083       .  S
C756        C757   1.402       .  A
C757        C758   1.391       .  A
C757        H762   1.083       .  S
C758        C759   1.401       .  A
C758        H763   1.083       .  S
C759        C760   1.404       .  A
C760        H764   1.083       .  S
C765        C766   1.407       .  A
C765        C770   1.407       .  A
C765        H771   1.083       .  S
C766        C767   1.407       .  A
C767        C768   1.400       .  A
C767        H772   1.083       .  S
C768        C769   1.404       .  A
C768        H773   1.083       .  S
C769        C770   1.409       .  A
C770        H774   1.083       .  S
C775        C776   1.403       .  A
C775        C780   1.397       .  A
C775        H781   1.083       .  S
C776        C777   1.405       .  A
C777        C778   1.397       .  A
C777        H782   1.083       .  S
C778        C779   1.403       .  A
C778        H783   1.083       .  S
C779        C780   1.404       .  A
C780        H784   1.083       .  S
C785        C786   1.405       .  A
C785        C790   1.405       .  A
C785        H791   1.083       .  S
C786       C2186   1.479       .  S
C786        C787   1.406       .  A
C787        C788   1.404       .  A
C787        H792   1.084       .  S
C788        C789   1.405       .  A
C788        H793   1.083       .  S
C789        C790   1.405       .  A
C790        H794   1.083       .  S
C795        C796   1.407       .  A
C795        C800   1.390       .  A
C795        H801   1.083       .  S
C796        C797   1.400       .  A
C797        C798   1.399       .  A
C797        H802   1.083       .  S
C798        C799   1.408       .  A
C798        H803   1.084       .  S
C799        C800   1.396       .  A
C800        H804   1.084       .  S
C805        C806   1.398       .  A
C805        C810   1.393       .  A
C805        H811   1.084       .  S
C806        C807   1.408       .  A
C807        C808   1.400       .  A
C807        H812   1.084       .  S
C808        C809   1.402       .  A
C808        H813   1.083       .  S
C809        C810   1.407       .  A
C810        H814   1.083       .  S
C815        C816   1.408       .  A
C815        C820   1.404   1_565  A
C815        H821   1.083       .  S
C816        C817   1.407       .  A
C817        C818   1.405   1_565  A
C817        H822   1.083       .  S
C818        C819   1.408       .  A
C818        H823   1.083       .  S
C819        C820   1.407       .  A
C820        H824   1.083       .  S
C825        C826   1.408       .  A
C825        C830   1.403       .  A
C825        H831   1.084       .  S
C826        C827   1.400       .  A
C827        C828   1.394       .  A
C827        H832   1.084       .  S
C828        C829   1.407       .  A
C828        H833   1.083       .  S
C829        C830   1.404       .  A
C830        H834   1.083       .  S
C835        C836   1.407       .  A
C835        C840   1.393       .  A
C835        H841   1.083       .  S
C836        C837   1.401       .  A
C837        C838   1.401       .  A
C837        H842   1.083       .  S
C838        C839   1.409       .  A
C838        H843   1.084       .  S
C839        C840   1.398       .  A
C840        H844   1.084       .  S
C845        C846   1.404       .  A
C845        C850   1.396       .  A
C845        H851   1.083       .  S
C846        C847   1.403       .  A
C847        C848   1.395       .  A
C847        H852   1.083       .  S
C848        C849   1.403       .  A
C848        H853   1.083       .  S
C849        C850   1.402       .  A
C850        H854   1.083       .  S
C855        C856   1.403       .  A
C855        C860   1.398       .  A
C855        H861   1.083       .  S
C856        C857   1.406       .  A
C857        C858   1.401       .  A
C857        H862   1.083       .  S
C858        C859   1.404       .  A
C858        H863   1.083       .  S
C859        C860   1.406       .  A
C860        H864   1.083       .  S
C865        C870   1.399       .  A
C865       C2530   1.413       .  A
C865        H871   1.083       .  S
C866        C867   1.406       .  A
C866       C2529   1.413   1_554  A
C867        C868   1.415   1_554  A
C867        H872   1.083       .  S
C868       C2533   1.416       .  A
C868        H873   1.083       .  S
C869        C870   1.402       .  A
C869       C2532   1.416       .  A
C870        H874   1.083       .  S
C875        C876   1.404       .  A
C875        C880   1.394       .  A
C875        H881   1.083       .  S
C876        C877   1.404       .  A
C877        C878   1.398       .  A
C877        H882   1.083       .  S
C878        C879   1.404       .  A
C878        H883   1.083       .  S
C879        C880   1.401       .  A
C880        H884   1.084       .  S
C885        C886   1.407       .  A
C885        C890   1.399       .  A
C885        H891   1.083       .  S
C886        C887   1.404       .  A
C887        C888   1.396       .  A
C887        H892   1.083       .  S
C888        C889   1.403       .  A
C888        H893   1.083       .  S
C889        C890   1.401       .  A
C890        H894   1.083       .  S
C895        C896   1.398       .  A
C895        C900   1.386       .  A
C895        H901   1.083       .  S
C896        C897   1.412       .  A
C897        C898   1.405       .  A
C897        H902   1.083       .  S
C898        C899   1.401       .  A
C898        H903   1.083       .  S
C899        C900   1.407       .  A
C900        H904   1.082       .  S
C905        C906   1.406       .  A
C905        C910   1.408   1_565  A
C905        H911   1.083       .  S
C906        C907   1.409       .  A
C907        C908   1.406   1_565  A
C907        H912   1.083       .  S
C908        C909   1.408       .  A
C908        H913   1.083       .  S
C909        C910   1.411       .  A
C910        H914   1.083       .  S
C915        C916   1.405       .  A
C915        C920   1.396       .  A
C915        H921   1.083       .  S
C916        C917   1.402       .  A
C917        C918   1.397       .  A
C917        H922   1.083       .  S
C918        C919   1.406       .  A
C918        H923   1.083       .  S
C919        C920   1.401       .  A
C920        H924   1.083       .  S
C925        C926   1.404       .  A
C925        C930   1.398       .  A
C925        H931   1.083       .  S
C926        C927   1.404       .  A
C927        C928   1.396       .  A
C927        H932   1.083       .  S
C928        C929   1.403       .  A
C928        H933   1.084       .  S
C929        C930   1.403       .  A
C930        H934   1.083       .  S
C935        C936   1.408       .  A
C935        C940   1.406       .  A
C935        H941   1.083       .  S
C936        C937   1.407       .  A
C937        C938   1.405       .  A
C937        H942   1.083       .  S
C938        C939   1.407       .  A
C938        H943   1.083       .  S
C939        C940   1.408       .  A
C940        H944   1.083       .  S
C945        C946   1.408       .  A
C945        C950   1.398       .  A
C945        H951   1.083       .  S
C946        C947   1.399       .  A
C947        C948   1.393       .  A
C947        H952   1.083       .  S
C948        C949   1.408       .  A
C948        H953   1.084       .  S
C949        C950   1.401       .  A
C950        H954   1.083       .  S
C955        C956   1.406       .  A
C955        C960   1.405       .  A
C955        H961   1.084       .  S
C956        C957   1.406       .  A
C957        C958   1.408       .  A
C957        H962   1.083       .  S
C958        C959   1.407       .  A
C958        H963   1.083       .  S
C959        C960   1.406       .  A
C960        H964   1.083       .  S
C965        C966   1.408       .  A
C965        C970   1.399       .  A
C965        H971   1.084       .  S
C966        C967   1.399       .  A
C967        C968   1.394       .  A
C967        H972   1.084       .  S
C968        C969   1.407       .  A
C968        H973   1.083       .  S
C969        C970   1.402       .  A
C970        H974   1.083       .  S
C975        C976   1.403       .  A
C975        C980   1.400       .  A
C975        H981   1.083       .  S
C976        C977   1.407       .  A
C977        C978   1.392       .  A
C977        H982   1.083       .  S
C978        C979   1.397       .  A
C978        H983   1.084       .  S
C979        C980   1.406       .  A
C980        H984   1.084       .  S
C985        C986   1.404       .  A
C985        C990   1.396       .  A
C985        H991   1.083       .  S
C986        C987   1.406       .  A
C987        C988   1.397       .  A
C987        H992   1.083       .  S
C988        C989   1.401       .  A
C988        H993   1.083       .  S
C989        C990   1.403       .  A
C990        H994   1.084       .  S
C995        C996   1.407       .  A
C995       C1000   1.406   1_554  A
C995       H1001   1.083       .  S
C996       C2661   1.409       .  A
C997        C998   1.406       .  A
C997       C2660   1.409       .  A
C997       H1002   1.083       .  S
C998        C999   1.406       .  A
C998       H1003   1.083       .  S
C999       C2664   1.410       .  A
C1000      C2663   1.410       .  A
C1000      H1004   1.083       .  S
C1005      C1006   1.404       .  A
C1005      C1010   1.404       .  A
C1005      H1011   1.083       .  S
C1006      C1007   1.405       .  A
C1007      C1008   1.402       .  A
C1007      H1012   1.083       .  S
C1008      C1009   1.404       .  A
C1008      H1013   1.083       .  S
C1009      C1010   1.405       .  A
C1010      H1014   1.083       .  S
C1015      C1016   1.409       .  A
C1015      C1020   1.399       .  A
C1015      H1021   1.084       .  S
C1016      C1017   1.396       .  A
C1017      C1018   1.392       .  A
C1017      H1022   1.084       .  S
C1018      C1019   1.407       .  A
C1018      H1023   1.083       .  S
C1019      C1020   1.400       .  A
C1020      H1024   1.083       .  S
C1025      C1026   1.407       .  A
C1025      C1030   1.393       .  A
C1025      H1031   1.083       .  S
C1026      C1027   1.404       .  A
C1027      C1028   1.400       .  A
C1027      H1032   1.083       .  S
C1028      C1029   1.406       .  A
C1028      H1033   1.084       .  S
C1029      C1030   1.399       .  A
C1030      H1034   1.084       .  S
C1035      C1036   1.405       .  A
C1035      C1040   1.389       .  A
C1035      H1041   1.083   1_655  S
C1036      C1037   1.401       .  A
C1037      C1038   1.396       .  A
C1037      H1042   1.083       .  S
C1038      C1039   1.406       .  A
C1038      H1043   1.084       .  S
C1039      C1040   1.396       .  A
C1040      H1044   1.084       .  S
C1045      C1046   1.406       .  A
C1045      C1050   1.399       .  A
C1045      H1051   1.084       .  S
C1046      C1047   1.399       .  A
C1047      C1048   1.394       .  A
C1047      H1052   1.084       .  S
C1048      C1049   1.407       .  A
C1048      H1053   1.083   1_455  S
C1049      C1050   1.403       .  A
C1050      H1054   1.083       .  S
C1055      C1056   1.405       .  A
C1055      C1060   1.405       .  A
C1055      H1061   1.083       .  S
C1056      C1057   1.405       .  A
C1057      C1058   1.402       .  A
C1057      H1062   1.084       .  S
C1058      C1059   1.404       .  A
C1058      H1063   1.083   1_554  S
C1059      C1944   1.476       .  S
C1059      C1060   1.405       .  A
C1060      H1064   1.083       .  S
C1065      C1066   1.404       .  A
C1065      C1070   1.397       .  A
C1065      H1071   1.083       .  S
C1066      C1067   1.402       .  A
C1067      C1068   1.391       .  A
C1067      H1072   1.083       .  S
C1068      C1069   1.401       .  A
C1068      H1073   1.084       .  S
C1069      C1070   1.403       .  A
C1070      H1074   1.083       .  S
C1075      C1076   1.407       .  A
C1075      C1080   1.402   1_545  A
C1075      H1081   1.083       .  S
C1076      C1077   1.408       .  A
C1077      C1078   1.405   1_545  A
C1077      H1082   1.083       .  S
C1078      C1079   1.407       .  A
C1078      H1083   1.083       .  S
C1079      C1080   1.406       .  A
C1080      H1084   1.083       .  S
C1085      C1086   1.407       .  A
C1085      C1090   1.393       .  A
C1085      H1091   1.083   1_655  S
C1086      C1087   1.403       .  A
C1087      C1088   1.401       .  A
C1087      H1092   1.083       .  S
C1088      C1089   1.408       .  A
C1088      H1093   1.084       .  S
C1089      C1090   1.398       .  A
C1090      H1094   1.084       .  S
C1095      C1096   1.397       .  A
C1095      C1100   1.390       .  A
C1095      H1101   1.084       .  S
C1096      C1097   1.406       .  A
C1097      C1098   1.397       .  A
C1097      H1102   1.084       .  S
C1098      C1099   1.401       .  A
C1098      H1103   1.083       .  S
C1099      C1100   1.407       .  A
C1100      H1104   1.083   1_455  S
C1105      C1106   1.403       .  A
C1105      C1110   1.394       .  A
C1105      H1111   1.083       .  S
C1106      C1107   1.405       .  A
C1107      C1108   1.401       .  A
C1107      H1112   1.083       .  S
C1108      C1109   1.405       .  A
C1108      H1113   1.083       .  S
C1109      C1110   1.403       .  A
C1110      H1114   1.083       .  S
C1115      C1116   1.403       .  A
C1115      C1120   1.399       .  A
C1115      H1121   1.083       .  S
C1116      C1117   1.406       .  A
C1117      C1118   1.390       .  A
C1117      H1122   1.083       .  S
C1118      C1119   1.397       .  A
C1118      H1123   1.084       .  S
C1119      C1120   1.406       .  A
C1120      H1124   1.084       .  S
C1125      C1126   1.402       .  A
C1125      C1130   1.399       .  A
C1125      H1131   1.083       .  S
C1126      C1127   1.408       .  A
C1127      C1128   1.392       .  A
C1127      H1132   1.083       .  S
C1128      C1129   1.397       .  A
C1128      H1133   1.084       .  S
C1129      C1130   1.406       .  A
C1130      H1134   1.084       .  S
C1135      C1136   1.405       .  A
C1135      C1140   1.403       .  A
C1135      H1141   1.083       .  S
C1136      C1137   1.405       .  A
C1137      C1138   1.405       .  A
C1137      H1142   1.083       .  S
C1138      C1139   1.405       .  A
C1138      H1143   1.084       .  S
C1139      C1140   1.404       .  A
C1140      H1144   1.083       .  S
C1145      C1146   1.405       .  A
C1145      C1150   1.396       .  A
C1145      H1151   1.083       .  S
C1146      C1147   1.405       .  A
C1147      C1148   1.398       .  A
C1147      H1152   1.083       .  S
C1148      C1149   1.403       .  A
C1148      H1153   1.083       .  S
C1149      C1150   1.401       .  A
C1150      H1154   1.083       .  S
C1155      C1156   1.407       .  A
C1155      C1160   1.410       .  A
C1155      H1161   1.083       .  S
C1156      C1157   1.405       .  A
C1157      C1158   1.404       .  A
C1157      H1162   1.083       .  S
C1158      C1159   1.406       .  A
C1158      H1163   1.084       .  S
C1159      C1160   1.407       .  A
C1160      H1164   1.083       .  S
C1165      C1166   1.407       .  A
C1165      C1170   1.400       .  A
C1165      H1171   1.084       .  S
C1166      C1167   1.398       .  A
C1167      C1168   1.391       .  A
C1167      H1172   1.085       .  S
C1168      C1169   1.406       .  A
C1168      H1173   1.083       .  S
C1169      C1170   1.403       .  A
C1170      H1174   1.083       .  S
C1175      C1176   1.402       .  A
C1175      C1180   1.401       .  A
C1175      H1181   1.083       .  S
C1176      C1177   1.408       .  A
C1177      C1178   1.395       .  A
C1177      H1182   1.083       .  S
C1178      C1179   1.398       .  A
C1178      H1183   1.084       .  S
C1179      C1180   1.408       .  A
C1180      H1184   1.084       .  S
C1185      C1190   1.410   1_556  A
C1185      C2850   1.409       .  A
C1185      H1191   1.083       .  S
C1186      C1187   1.409       .  A
C1186      C2849   1.409       .  A
C1187      C1188   1.408       .  A
C1187      H1192   1.083       .  S
C1188      C2853   1.408       .  A
C1188      H1193   1.083       .  S
C1189      C1190   1.410       .  A
C1189      C2852   1.408       .  A
C1190      H1194   1.083       .  S
C1195      C1196   1.405       .  A
C1195      C1200   1.406       .  A
C1195      H1201   1.083       .  S
C1196      C1878   1.481       .  S
C1196      C1197   1.406       .  A
C1197      C1198   1.405       .  A
C1197      H1202   1.083       .  S
C1198      C1199   1.405       .  A
C1198      H1203   1.083       .  S
C1199      C1200   1.406       .  A
C1200      H1204   1.083       .  S
C1205      C1206   1.398       .  A
C1205      C1210   1.392       .  A
C1205      H1211   1.084       .  S
C1206      C1207   1.408       .  A
C1207      C1208   1.402       .  A
C1207      H1212   1.084       .  S
C1208      C1209   1.403       .  A
C1208      H1213   1.083       .  S
C1209      C1210   1.406       .  A
C1210      H1214   1.083       .  S
C1215      C1216   1.407       .  A
C1215      C1220   1.399       .  A
C1215      H1221   1.084       .  S
C1216      C1217   1.398       .  A
C1217      C1218   1.393       .  A
C1217      H1222   1.084       .  S
C1218      C1219   1.407       .  A
C1218      H1223   1.083       .  S
C1219      C1220   1.403       .  A
C1220      H1224   1.083       .  S
C1225      C1226   1.404       .  A
C1225      C1230   1.396       .  A
C1225      H1231   1.083       .  S
C1226      C1227   1.404       .  A
C1227      C1228   1.400       .  A
C1227      H1232   1.083       .  S
C1228      C1229   1.405       .  A
C1228      H1233   1.083       .  S
C1229      C1230   1.403       .  A
C1230      H1234   1.083       .  S
C1235      C1236   1.405       .  A
C1235      C1240   1.398       .  A
C1235      H1241   1.083       .  S
C1236      C1237   1.401       .  A
C1237      C1238   1.394       .  A
C1237      H1242   1.083       .  S
C1238      C1239   1.404       .  A
C1238      H1243   1.083       .  S
C1239      C1240   1.403       .  A
C1240      H1244   1.083       .  S
C1245      C1246   1.406       .  A
C1245      C1250   1.406       .  A
C1245      H1251   1.083       .  S
C1246      C1247   1.405       .  A
C1247      C1248   1.406       .  A
C1247      H1252   1.083       .  S
C1248      C1249   1.406       .  A
C1248      H1253   1.083       .  S
C1249      C1250   1.406       .  A
C1250      H1254   1.083       .  S
C1255      C1256   1.405       .  A
C1255      C1260   1.395       .  A
C1255      H1261   1.084       .  S
C1256      C1257   1.396       .  A
C1257      C1258   1.390       .  A
C1257      H1262   1.084       .  S
C1258      C1259   1.406       .  A
C1258      H1263   1.083       .  S
C1259      C1260   1.400       .  A
C1260      H1264   1.083       .  S
C1265      C1266   1.408       .  A
C1265      C1270   1.392       .  A
C1265      H1271   1.083       .  S
C1266      C1267   1.403       .  A
C1267      C1268   1.400       .  A
C1267      H1272   1.083       .  S
C1268      C1269   1.407       .  A
C1268      H1273   1.084       .  S
C1269      C1270   1.398       .  A
C1270      H1274   1.084       .  S
C1275      C1276   1.408       .  A
C1275      C1280   1.404       .  A
C1275      H1281   1.083       .  S
C1276      C1277   1.407       .  A
C1277      C1278   1.406       .  A
C1277      H1282   1.083       .  S
C1278      C1279   1.408       .  A
C1278      H1283   1.083       .  S
C1279      C1280   1.407       .  A
C1280      H1284   1.083       .  S
C1285      C1286   1.407       .  A
C1285      C1290   1.405       .  A
C1285      H1291   1.084       .  S
C1286      C1287   1.402       .  A
C1287      C1288   1.403       .  A
C1287      H1292   1.083       .  S
C1288      C1289   1.409       .  A
C1288      H1293   1.083       .  S
C1289      C1290   1.405       .  A
C1290      H1294   1.083       .  S
C1295      C1296   1.408       .  A
C1295      C1300   1.394       .  A
C1295      H1301   1.083   1_455  S
C1296      C1297   1.403       .  A
C1297      C1298   1.402       .  A
C1297      H1302   1.083       .  S
C1298      C1299   1.408       .  A
C1298      H1303   1.084       .  S
C1299      C1300   1.399       .  A
C1300      H1304   1.084       .  S
C1305      C1306   1.399       .  A
C1305      C1310   1.394       .  A
C1305      H1311   1.084       .  S
C1306      C1307   1.408       .  A
C1307      C1308   1.400       .  A
C1307      H1312   1.084       .  S
C1308      C1309   1.401       .  A
C1308      H1313   1.083       .  S
C1309      C1310   1.407       .  A
C1310      H1314   1.083   1_655  S
C1315      C1316   1.405       .  A
C1315      C1320   1.404       .  A
C1315      H2985   1.083       .  S
C1316      C1812   1.481       .  S
C1316      C1317   1.406       .  A
C1317      C1318   1.407       .  A
C1317      H1322   1.083       .  S
C1318      C1319   1.406       .  A
C1318      H1323   1.083       .  S
C1319      C1320   1.407       .  A
C1320      H1324   1.084       .  S
H1321      C2979   1.083       .  S
C1325      C1326   1.397       .  A
C1325      C1330   1.392       .  A
C1325      H1331   1.084       .  S
C1326      C1327   1.407       .  A
C1327      C1328   1.398       .  A
C1327      H1332   1.084       .  S
C1328      C1329   1.401       .  A
C1328      H1333   1.083       .  S
C1329      C1330   1.407       .  A
C1330      H1334   1.083   1_455  S
C1335      C1336   1.407       .  A
C1335      C1340   1.399       .  A
C1335      H1341   1.084       .  S
C1336      C1337   1.397       .  A
C1337      C1338   1.391       .  A
C1337      H1342   1.084       .  S
C1338      C1339   1.407       .  A
C1338      H1343   1.083   1_655  S
C1339      C1340   1.402       .  A
C1340      H1344   1.083       .  S
C1345      C1346   1.405       .  A
C1345      C1350   1.398       .  A
C1345      H1351   1.083       .  S
C1346      C1347   1.405       .  A
C1347      C1348   1.396       .  A
C1347      H1352   1.083       .  S
C1348      C1349   1.402       .  A
C1348      H1353   1.084       .  S
C1349      C1350   1.403       .  A
C1350      H1354   1.083       .  S
C1355      C1356   1.407       .  A
C1355      C1360   1.405       .  A
C1355      H1361   1.083       .  S
C1356      C1357   1.410       .  A
C1357      C1358   1.408       .  A
C1357      H1362   1.083       .  S
C1358      C1359   1.406       .  A
C1358      H1363   1.083       .  S
C1359      C1360   1.408       .  A
C1360      H1364   1.083       .  S
C1365      C1366   1.404       .  A
C1365      C1370   1.398       .  A
C1365      H1371   1.083       .  S
C1366      C1367   1.404       .  A
C1367      C1368   1.398       .  A
C1367      H1372   1.083       .  S
C1368      C1369   1.404       .  A
C1368      H1373   1.083       .  S
C1369      C1370   1.404       .  A
C1370      H1374   1.083       .  S
C1375      C1376   1.405       .  A
C1375      C1380   1.398       .  A
C1375      H1381   1.083       .  S
C1376      C1377   1.402       .  A
C1377      C1378   1.389       .  A
C1377      H1382   1.083       .  S
C1378      C1379   1.401       .  A
C1378      H1383   1.084       .  S
C1379      C1380   1.402       .  A
C1380      H1384   1.083       .  S
C1385      C1386   1.405       .  A
C1385      C1390   1.406       .  A
C1385      H1391   1.083       .  S
C1386      C1387   1.407       .  A
C1387      C1388   1.407       .  A
C1387      H1392   1.083       .  S
C1388      C1389   1.405       .  A
C1388      H1393   1.083       .  S
C1389      C2037   1.483       .  S
C1389      C1390   1.407       .  A
C1390      H1394   1.084       .  S
C1395      C1396   1.405       .  A
C1395      C1400   1.397       .  A
C1395      H1401   1.083       .  S
C1396      C1397   1.403       .  A
C1397      C1398   1.396       .  A
C1397      H1402   1.083       .  S
C1398      C1399   1.404       .  A
C1398      H1403   1.083       .  S
C1399      C1400   1.401       .  A
C1400      H1404   1.083       .  S
C1405      C1406   1.406       .  A
C1405      C1410   1.405       .  A
C1405      H1411   1.083       .  S
C1406      C1407   1.404       .  A
C1407      C1408   1.402       .  A
C1407      H1412   1.083       .  S
C1408      C1409   1.405       .  A
C1408      H1413   1.084       .  S
C1409      C2345   1.478       .  S
C1409      C1410   1.404       .  A
C1410      H1414   1.083       .  S
C1415      C1416   1.403       .  A
C1415      C1420   1.398       .  A
C1415      H1421   1.083       .  S
C1416      C1417   1.405       .  A
C1417      C1418   1.401       .  A
C1417      H1422   1.083       .  S
C1418      C1419   1.406       .  A
C1418      H1423   1.083       .  S
C1419      C1420   1.405       .  A
C1420      H1424   1.083       .  S
C1425      C1426   1.408       .  A
C1425      C1430   1.406       .  A
C1425      H1431   1.083       .  S
C1426      C1427   1.408       .  A
C1427      C1428   1.403       .  A
C1427      H1432   1.083       .  S
C1428      C1429   1.406       .  A
C1428      H1433   1.083       .  S
C1429      C1430   1.407       .  A
C1430      H1434   1.083       .  S
C1435      C1436   1.404       .  A
C1435      C1440   1.397       .  A
C1435      H1441   1.083       .  S
C1436      C1437   1.404       .  A
C1437      C1438   1.400       .  A
C1437      H1442   1.083       .  S
C1438      C1439   1.406       .  A
C1438      H1443   1.083       .  S
C1439      C1440   1.404       .  A
C1440      H1444   1.083       .  S
C1445      C1446   1.401       .  A
C1445      C1450   1.397       .  A
C1445      H1451   1.083       .  S
C1446      C1447   1.401       .  A
C1447      C1448   1.393       .  A
C1447      H1452   1.082       .  S
C1448      C1449   1.403       .  A
C1448      H1453   1.083       .  S
C1449      C1450   1.407       .  A
C1450      H1454   1.083       .  S
C1455      C1456   1.405       .  A
C1455      C1460   1.404       .  A
C1455      H1461   1.082       .  S
C1456      C1457   1.404       .  A
C1457      C1458   1.404       .  A
C1457      H1462   1.083       .  S
C1458      C1459   1.404       .  A
C1458      H1463   1.083       .  S
C1459      C1460   1.405       .  A
C1460      H1464   1.083       .  S
C1465      C1466   1.408       .  A
C1465      C1470   1.395       .  A
C1465      H1471   1.083       .  S
C1466      C1467   1.404       .  A
C1467      C1468   1.400       .  A
C1467      H1472   1.083       .  S
C1468      C1469   1.407       .  A
C1468      H1473   1.084       .  S
C1469      C1470   1.399       .  A
C1470      H1474   1.084       .  S
C1475      C1476   1.406       .  A
C1475      C1480   1.400       .  A
C1475      H1481   1.084       .  S
C1476      C1477   1.398       .  A
C1477      C1478   1.391       .  A
C1477      H1482   1.084       .  S
C1478      C1479   1.407       .  A
C1478      H1483   1.083       .  S
C1479      C1480   1.403       .  A
C1480      H1484   1.083       .  S
C1485      C1486   1.403       .  A
C1485      C1490   1.397       .  A
C1485      H1491   1.083       .  S
C1486      C1487   1.401       .  A
C1487      C1488   1.395       .  A
C1487      H1492   1.084       .  S
C1488      C1489   1.406       .  A
C1488      H1493   1.083       .  S
C1489      C1490   1.404       .  A
C1490      H1494   1.083       .  S
C1495      C1496   1.406       .  A
C1495      C1500   1.394       .  A
C1495      H1501   1.084       .  S
C1496      C1497   1.401       .  A
C1497      C1498   1.400       .  A
C1497      H3166   1.083       .  S
C1498      C1499   1.408       .  A
C1498      H3167   1.083       .  S
C1499      C1500   1.402       .  A
C1500      H1504   1.083       .  S
H1502      C3161   1.083       .  S
H1503      C3162   1.083       .  S
C1505      C1506   1.408       .  A
C1505      C1510   1.403       .  A
C1505      H1511   1.083       .  S
C1506      C1507   1.405       .  A
C1507      C1508   1.404       .  A
C1507      H1512   1.083       .  S
C1508      C1509   1.405       .  A
C1508      H1513   1.084       .  S
C1509      C1510   1.403       .  A
C1510      H1514   1.083       .  S
C1515      C1516   1.415       .  A
C1515      C1520   1.384       .  A
C1515      H1521   1.083       .  S
C1516      C1517   1.397       .  A
C1517      C1518   1.402       .  A
C1517      H1522   1.083       .  S
C1518      C1519   1.414       .  A
C1518      H1523   1.082       .  S
C1519      C1520   1.388       .  A
C1520      H1524   1.084       .  S
C1525      C1526   1.405       .  A
C1525      C1530   1.401       .  A
C1525      H3195   1.083       .  S
C1526      C1527   1.396       .  A
C1527      C1528   1.384       .  A
C1527      H1532   1.084       .  S
C1528      C1529   1.405       .  A
C1528      H1533   1.083       .  S
C1529      C1530   1.403       .  A
C1530      H1534   1.083       .  S
H1531      C3189   1.083       .  S
C1535      C1536   1.408       .  A
C1535      C1540   1.414       .  A
C1535      H1541   1.083       .  S
C1536      C3201   1.412       .  A
C1537      C1538   1.398   1_556  A
C1537      C3200   1.412       .  A
C1537      H1542   1.083       .  S
C1538      C1539   1.403       .  A
C1538      H1543   1.083       .  S
C1539      C3204   1.413       .  A
C1540      C3203   1.413       .  A
C1540      H1544   1.083       .  S
C1545      C1546   1.403       .  A
C1545      C1550   1.409       .  A
C1545      H1551   1.083       .  S
C1546      C1547   1.406       .  A
C1547      C1548   1.386       .  A
C1547      H1552   1.082       .  S
C1548      C1549   1.399       .  A
C1548      H1553   1.083       .  S
C1549      C1550   1.413       .  A
C1550      H1554   1.083       .  S
C1555      C1556   1.400       .  A
C1555      C1560   1.391       .  A
C1555      H1561   1.083       .  S
C1556      C1557   1.403       .  A
C1557      C1558   1.400       .  A
C1557      H1562   1.083       .  S
C1558      C1559   1.405       .  A
C1558      H1563   1.083       .  S
C1559      C1560   1.403       .  A
C1560      H1564   1.083       .  S
C1565      C1566   1.399       .  A
C1565      C1570   1.395       .  A
C1565      H1571   1.084       .  S
C1566      C1567   1.407       .  A
C1567      C1568   1.398       .  A
C1567      H1572   1.084       .  S
C1568      C1569   1.402       .  A
C1568      H1573   1.083       .  S
C1569      C1570   1.408       .  A
C1570      H1574   1.083       .  S
C1575      C1576   1.407       .  A
C1575      C1580   1.395       .  A
C1575      H1581   1.083       .  S
C1576      C1577   1.403       .  A
C1577      C1578   1.401       .  A
C1577      H1582   1.083       .  S
C1578      C1579   1.407       .  A
C1578      H1583   1.084       .  S
C1579      C1580   1.399       .  A
C1580      H1584   1.084       .  S
C1585      C1586   1.406       .  A
C1585      C1590   1.407       .  A
C1585      H1591   1.083       .  S
C1586      C1587   1.405       .  A
C1587      C1588   1.405       .  A
C1587      H1592   1.083       .  S
C1588      C1589   1.406       .  A
C1588      H1593   1.084       .  S
C1589      C2257   1.483       .  S
C1589      C1590   1.405       .  A
C1590      H3258   1.083       .  S
H1594      C3254   1.083       .  S
C1595      C1596   1.401       .  A
C1595      C1600   1.396       .  A
C1595      H1601   1.083       .  S
C1596      C1597   1.403       .  A
C1597      C1598   1.393       .  A
C1597      H1602   1.083       .  S
C1598      C1599   1.402       .  A
C1598      H1603   1.083       .  S
C1599      C1600   1.405       .  A
C1600      H1604   1.083       .  S
C1605      C1606   1.406       .  A
C1605      C1610   1.400       .  A
C1605      H1611   1.083       .  S
C1606      C1607   1.402       .  A
C1607      C1608   1.396       .  A
C1607      H1612   1.083       .  S
C1608      C1609   1.404       .  A
C1608      H1613   1.083       .  S
C1609      C1610   1.405       .  A
C1610      H1614   1.083       .  S
C1615      C1616   1.404       .  A
C1615      C1620   1.402       .  A
C1615      H1621   1.083       .  S
C1616      C1617   1.405       .  A
C1617      C1618   1.403       .  A
C1617      H1622   1.084       .  S
C1618      C1619   1.403       .  A
C1618      H1623   1.083       .  S
C1619      C2081   1.475       .  S
C1619      C1620   1.404       .  A
C1620      H1624   1.083       .  S
C1625      C1626   1.415       .  A
C1625      C1630   1.402       .  A
C1625      H1631   1.082       .  S
C1626      C1627   1.386       .  A
C1627      C1628   1.382       .  A
C1627      H1632   1.084       .  S
C1628      C1629   1.415       .  A
C1628      H1633   1.083       .  S
C1629      C1630   1.396       .  A
C1630      H1634   1.083       .  S
C1635      C1636   1.406       .  A
C1635      C1640   1.384       .  A
C1635      H1641   1.083       .  S
C1636      C1637   1.405       .  A
C1637      C1638   1.401       .  A
C1637      H1642   1.083       .  S
C1638      C1639   1.404       .  A
C1638      H1643   1.083       .  S
C1639      C1640   1.397       .  A
C1640      H1644   1.084       .  S
C1645      C1646   1.407       .  A
C1645      C1650   1.404       .  A
C1645      H1651   1.083       .  S
C1646      C1647   1.410       .  A
C1647      C1648   1.406       .  A
C1647      H1652   1.083       .  S
C1648      C1649   1.405       .  A
C1648      H1653   1.083       .  S
C1649      C1650   1.407       .  A
C1650      H1654   1.083       .  S
C1655      C1656   1.403       .  A
C1655      C1660   1.397       .  A
C1655      H1661   1.083       .  S
C1656      C1657   1.406       .  A
C1657      C1658   1.399       .  A
C1657      H1662   1.083       .  S
C1658      C1659   1.403       .  A
C1658      H1663   1.083       .  S
C1659      C1660   1.405       .  A
C1660      H1664   1.083       .  S
O1665      C1680   1.255       .  A
O1665     Al1673   1.862       .  S
C1666      O1676   1.273       .  A
C1666      O1667   1.260       .  A
C1666      C3290   1.451       .  S
O1667     Al1669   1.875       .  S
O1668      C1670   1.261       .  A
O1668     Al1669   1.907       .  S
Al1669     O1677   1.907       .  S
Al1669     O1679   1.926       .  S
Al1669     O1678   1.788       .  S
C1670      O1683   1.257       .  A
C1670      C3323   1.472       .  S
O1671      C1681   1.254       .  A
O1671     Al1673   1.882       .  S
O1672      C1685   1.270       .  A
O1672     Al1682   1.935       .  S
Al1673     O1686   1.904       .  S
Al1673     O1683   1.896       .  S
Al1673     O1678   1.767       .  S
O1674      C1681   1.267       .  A
O1674     Al1682   1.947       .  S
O1675      C1684   1.262       .  A
O1675     Al1682   1.922       .  S
O1676     Al1682   1.919       .  S
O1677      C1684   1.268       .  A
O1678     Al1682   1.789       .  S
O1679      C1680   1.264       .  A
C1680      C3300   1.468       .  S
C1681      C3270   1.472       .  S
C1684      C3310   1.494       .  S
C1685      O1686   1.262       .  A
C1685      C3280   1.472       .  S
O1687      C1702   1.257       .  A
O1687     Al1695   1.877       .  S
C1688      O1698   1.271       .  A
C1688      O1689   1.255       .  A
C1688      C3230   1.456       .  S
O1689     Al1691   1.876       .  S
O1690      C1692   1.260       .  A
O1690     Al1691   1.890       .  S
Al1691     O1699   1.910       .  S
Al1691     O1701   1.915       .  S
Al1691     O1700   1.792       .  S
C1692      O1705   1.260       .  A
C1692      C3263   1.467       .  S
O1693      C1703   1.252       .  A
O1693     Al1695   1.888       .  S
O1694      C1707   1.275       .  A
O1694     Al1704   1.941       .  S
Al1695     O1708   1.910       .  S
Al1695     O1705   1.899       .  S
Al1695     O1700   1.775       .  S
O1696      C1703   1.258       .  A
O1696     Al1704   1.915       .  S
O1697      C1706   1.264       .  A
O1697     Al1704   1.925       .  S
O1698     Al1704   1.940       .  S
O1699      C1706   1.270       .  A
O1700     Al1704   1.790       .  S
O1701      C1702   1.260       .  A
C1702      C3240   1.476       .  S
C1703      C3220   1.465       .  S
C1706      C3313   1.487       .  S
C1707      O1708   1.266       .  A
C1707      C3250   1.481       .  S
O1709      C1724   1.262       .  A
O1709     Al1717   1.884       .  S
C1710      C3190   1.449       .  S
O1711     Al1713   1.933       .  S
O1712      C1714   1.260       .  A
O1712     Al1713   1.920       .  S
Al1713     O1721   1.929       .  S
Al1713     O1723   1.971       .  S
Al1713     O1722   1.796       .  S
C1714      O1727   1.252       .  A
C1714      C3160   1.472       .  S
O1715      C1725   1.272       .  A
O1715     Al1717   1.947       .  S
O1716      C1729   1.266       .  A
O1716     Al1726   1.917       .  S
Al1717     O1730   1.859       .  S
Al1717     O1727   1.885       .  S
Al1717     O1722   1.781       .  S
O1718      C1725   1.260       .  A
O1718     Al1726   1.884       .  S
O1719      C1728   1.261       .  A
O1719     Al1726   1.896       .  S
O1720     Al1726   1.840       .  S
O1721      C1728   1.269       .  A
O1722     Al1726   1.779       .  S
O1723      C1724   1.277       .  A
C1724      C3170   1.483       .  S
C1725      C3210   1.476       .  S
C1728      C3200   1.500       .  S
C1729      O1730   1.253       .  A
C1729      C3180   1.474       .  S
O1731      C1746   1.269       .  A
O1731     Al1739   1.916       .  S
C1732      C3140   1.452       .  S
O1733     Al1735   1.932       .  S
O1734      C1736   1.258       .  A
O1734     Al1735   1.920       .  S
Al1735     O1743   1.935       .  S
Al1735     O1745   1.936       .  S
Al1735     O1744   1.794       .  S
C1736      O1749   1.251       .  A
C1736      C3110   1.462       .  S
O1737      C1747   1.259       .  A
O1737     Al1739   1.897       .  S
O1738      C1751   1.261       .  A
O1738     Al1748   1.912       .  S
Al1739     O1752   1.876       .  S
Al1739     O1749   1.885       .  S
Al1739     O1744   1.771       .  S
O1740      C1747   1.261       .  A
O1740     Al1748   1.896       .  S
O1741      C1750   1.269       .  A
O1741     Al1748   1.910       .  S
O1742     Al1748   1.886       .  S
O1743      C1750   1.264       .  A
O1744     Al1748   1.788       .  S
O1745      C1746   1.275       .  A
C1746      C3120   1.478       .  S
C1747      C3150   1.465       .  S
C1750      C3203   1.496       .  S
C1751      O1752   1.258       .  A
C1751      C3130   1.477       .  S
O1753      C1768   1.256       .  A
O1753     Al1761   1.866       .  S
C1754      O1764   1.273       .  A
C1754      O1755   1.260       .  A
C1754      C3183   1.454       .  S
O1755     Al1757   1.879       .  S
O1756      C1758   1.261       .  A
O1756     Al1757   1.904       .  S
Al1757     O1765   1.902       .  S
Al1757     O1767   1.920       .  S
Al1757     O1766   1.792       .  S
C1758      O1771   1.258       .  A
C1758      C3100   1.473       .  S
O1759      C1769   1.256       .  A
O1759     Al1761   1.889       .  S
O1760      C1773   1.271       .  A
O1760     Al1770   1.937       .  S
Al1761     O1774   1.908       .  S
Al1761     O1771   1.900       .  S
Al1761     O1766   1.768       .  S
O1762      C1769   1.266       .  A
O1762     Al1770   1.944       .  S
O1763      C1772   1.263       .  A
O1763     Al1770   1.927       .  S
O1764     Al1770   1.923       .  S
O1765      C1772   1.266       .  A
O1766     Al1770   1.793       .  S
O1767      C1768   1.261       .  A
C1768      C3193   1.466       .  S
C1769      C3080   1.475       .  S
C1772      C3090   1.492       .  S
C1773      O1774   1.263       .  A
C1773      C3070   1.476       .  S
O1775      C1790   1.256       .  A
O1775     Al1783   1.871       .  S
C1776      O1786   1.271       .  A
C1776      O1777   1.256       .  A
C1776      C3133   1.457       .  S
O1777     Al1779   1.878       .  S
O1778      C1780   1.261       .  A
O1778     Al1779   1.897       .  S
Al1779     O1787   1.910       .  S
Al1779     O1789   1.917       .  S
Al1779     O1788   1.794       .  S
C1780      O1793   1.260       .  A
C1780      C3060   1.470       .  S
O1781      C1791   1.254       .  A
O1781     Al1783   1.886       .  S
O1782      C1795   1.275       .  A
O1782     Al1792   1.946       .  S
Al1783     O1796   1.907       .  S
Al1783     O1793   1.903       .  S
Al1783     O1788   1.774       .  S
O1784      C1791   1.259       .  A
O1784     Al1792   1.906       .  S
O1785      C1794   1.263       .  A
O1785     Al1792   1.918       .  S
O1786     Al1792   1.939       .  S
O1787      C1794   1.270       .  A
O1788     Al1792   1.788       .  S
O1789      C1790   1.261       .  A
C1790      C3143   1.472       .  S
C1791      C3040   1.466       .  S
C1794      C3093   1.487       .  S
C1795      O1796   1.264       .  A
C1795      C3050   1.483       .  S
C1798      O1808   1.257       .  A
C1798      O1799   1.271       .  A
C1798      C3000   1.451       .  S
O1799     Al1801   1.928       .  S
O1800      C1802   1.259       .  A
O1800     Al1801   1.918       .  S
Al1801     O1809   1.927       .  S
Al1801     O1811   1.938       .  S
Al1801     O1810   1.791       .  S
C1802      O1815   1.254       .  A
C1802      C3010   1.474       .  S
O1803      C1813   1.261       .  A
O1803     Al1805   1.906       .  S
O1804     Al1814   1.908       .  S
Al1805     O1815   1.890       .  S
Al1805     O1810   1.774       .  S
O1806      C1813   1.262       .  A
O1806     Al1814   1.901       .  S
O1807      C1816   1.268       .  A
O1807     Al1814   1.911       .  S
O1808     Al1814   1.879       .  S
O1809      C1816   1.264       .  A
O1810     Al1814   1.795       .  S
O1811      C1812   1.274   1_556  A
C1813      C3030   1.474   1_655  S
C1816      C3020   1.495       .  S
C1817      O1818   1.256       .  A
C1817      C2993   1.469   1_655  S
O1819      C1834   1.267       .  A
O1819     Al1827   1.912       .  S
C1820      O1830   1.259       .  A
C1820      O1821   1.273       .  A
C1820      C2970   1.455       .  S
O1821     Al1823   1.936       .  S
O1822      C1824   1.259       .  A
O1822     Al1823   1.924       .  S
Al1823     O1831   1.927       .  S
Al1823     O1833   1.935       .  S
Al1823     O1832   1.794       .  S
C1824      O1837   1.254       .  A
C1824      C3320   1.473       .  S
O1825      C1835   1.259       .  A
O1825     Al1827   1.902       .  S
O1826      C1839   1.262       .  A
O1826     Al1836   1.921       .  S
Al1827     O1840   1.871       .  S
Al1827     O1837   1.890       .  S
Al1827     O1832   1.775       .  S
O1828      C1835   1.257       .  A
O1828     Al1836   1.880       .  S
O1829      C1838   1.268       .  A
O1829     Al1836   1.909       .  S
O1830     Al1836   1.878       .  S
O1831      C1838   1.262       .  A
O1832     Al1836   1.790       .  S
O1833      C1834   1.275       .  A
C1834      C2950   1.479       .  S
C1835      C3043   1.461   1_655  S
C1838      C3023   1.491       .  S
C1839      O1840   1.257       .  A
C1839      C2960   1.478   1_655  S
O1841      C1856   1.267       .  A
O1841     Al1849   1.919       .  S
C1842      O1852   1.258       .  A
C1842      O1843   1.272       .  A
C1842      C2933   1.452       .  S
O1843     Al1845   1.932       .  S
O1844      C1846   1.259       .  A
O1844     Al1845   1.915       .  S
Al1845     O1853   1.921       .  S
Al1845     O1855   1.941       .  S
Al1845     O1854   1.793       .  S
C1846      O1859   1.255       .  A
C1846      C3260   1.464       .  S
O1847      C1857   1.260       .  A
O1847     Al1849   1.912       .  S
O1848      C1861   1.260       .  A
O1848     Al1858   1.902       .  S
Al1849     O1862   1.867       .  S
Al1849     O1859   1.890       .  S
Al1849     O1854   1.774       .  S
O1850      C1857   1.260       .  A
O1850     Al1858   1.897       .  S
O1851      C1860   1.265       .  A
O1851     Al1858   1.905       .  S
O1852     Al1858   1.873       .  S
O1853      C1860   1.261       .  A
O1854     Al1858   1.789       .  S
O1855      C1856   1.275       .  A
C1856      C2910   1.482       .  S
C1857      C3083   1.480       .  S
C1860      C2940   1.490       .  S
C1861      O1862   1.257       .  A
C1861      C2923   1.462       .  S
C1864      O1874   1.254       .  A
C1864      O1865   1.271       .  A
C1864      C2880   1.454       .  S
O1865     Al1867   1.937       .  S
O1866      C1868   1.259       .  A
O1866     Al1867   1.915       .  S
Al1867     O1875   1.924       .  S
Al1867     O1877   1.939       .  S
Al1867     O1876   1.788       .  S
C1868      O1881   1.255       .  A
C1868      C2890   1.473       .  S
O1869      C1879   1.261       .  A
O1869     Al1871   1.901       .  S
O1870     Al1880   1.917       .  S
Al1871     O1881   1.894       .  S
Al1871     O1876   1.772       .  S
O1872      C1879   1.262       .  A
O1872     Al1880   1.898       .  S
O1873      C1882   1.271       .  A
O1873     Al1880   1.911       .  S
O1874     Al1880   1.878       .  S
O1875      C1882   1.265       .  A
O1876     Al1880   1.798       .  S
O1877      C1878   1.274       .  A
C1879      C2900   1.468       .  S
C1882      C2943   1.489       .  S
C1883      O1884   1.256       .  A
C1883      C2873   1.474       .  S
O1885      C1900   1.257       .  A
O1885     Al1893   1.872       .  S
C1886      C2830   1.451       .  S
O1887     Al1889   1.879       .  S
O1888      C1890   1.259       .  A
O1888     Al1889   1.895       .  S
Al1889     O1897   1.913       .  S
Al1889     O1899   1.918       .  S
Al1889     O1898   1.796       .  S
C1890      O1903   1.258       .  A
C1890      C3013   1.467       .  S
O1891      C1901   1.253       .  A
O1891     Al1893   1.890       .  S
O1892      C1905   1.277       .  A
O1892     Al1902   1.945       .  S
Al1893     O1906   1.918       .  S
Al1893     O1903   1.897       .  S
Al1893     O1898   1.776       .  S
O1894      C1901   1.258       .  A
O1894     Al1902   1.919       .  S
O1895      C1904   1.263       .  A
O1895     Al1902   1.932       .  S
O1896     Al1902   1.932       .  S
O1897      C1904   1.269       .  A
O1898     Al1902   1.794       .  S
O1899      C1900   1.262       .  A
C1900      C2840   1.477       .  S
C1901      C2810   1.475       .  S
C1904      C2850   1.499       .  S
C1905      O1906   1.268       .  A
C1905      C2820   1.485       .  S
O1907      C1922   1.257       .  A
O1907     Al1915   1.870       .  S
C1908      C2783   1.448       .  S
O1909     Al1911   1.877       .  S
O1910      C1912   1.260       .  A
O1910     Al1911   1.897       .  S
Al1911     O1919   1.913       .  S
Al1911     O1921   1.919       .  S
Al1911     O1920   1.792       .  S
C1912      O1925   1.259       .  A
C1912      C2893   1.473       .  S
O1913      C1923   1.255       .  A
O1913     Al1915   1.893       .  S
O1914      C1927   1.274       .  A
O1914     Al1924   1.937       .  S
Al1915     O1928   1.913       .  S
Al1915     O1925   1.906       .  S
Al1915     O1920   1.775       .  S
O1916      C1923   1.261       .  A
O1916     Al1924   1.924       .  S
O1917      C1926   1.263       .  A
O1917     Al1924   1.931       .  S
O1918     Al1924   1.922       .  S
O1919      C1926   1.269       .  A
O1920     Al1924   1.793       .  S
O1921      C1922   1.263       .  A
C1922      C2790   1.473       .  S
C1923      C2770   1.472       .  S
C1926      C2853   1.500       .  S
C1927      O1928   1.266       .  A
C1927      C2800   1.478       .  S
C1930      O1940   1.258       .  A
C1930      O1931   1.269       .  A
C1930      C2760   1.448       .  S
O1931     Al1933   1.923       .  S
O1932      C1934   1.258       .  A
O1932     Al1933   1.910       .  S
Al1933     O1941   1.917       .  S
Al1933     O1943   1.932       .  S
Al1933     O1942   1.793       .  S
C1934      O1947   1.253       .  A
C1934      C2730   1.465       .  S
O1935      C1945   1.259       .  A
O1935     Al1937   1.898       .  S
O1936     Al1946   1.919       .  S
Al1937     O1947   1.886       .  S
Al1937     O1942   1.771       .  S
O1938      C1945   1.260       .  A
O1938     Al1946   1.897       .  S
O1939      C1948   1.268       .  A
O1939     Al1946   1.908       .  S
O1940     Al1946   1.879       .  S
O1941      C1948   1.261       .  A
O1942     Al1946   1.793       .  S
O1943      C1944   1.273   1_556  A
C1945      C2813   1.467   1_455  S
C1948      C2740   1.488       .  S
C1949      O1950   1.257       .  A
C1949      C2750   1.475   1_455  S
O1951      C1966   1.268       .  A
O1951     Al1959   1.915       .  S
C1952      O1962   1.258       .  A
C1952      O1953   1.272       .  A
C1952      C2710   1.453       .  S
O1953     Al1955   1.933       .  S
O1954      C1956   1.258       .  A
O1954     Al1955   1.914       .  S
Al1955     O1963   1.916       .  S
Al1955     O1965   1.934       .  S
Al1955     O1964   1.792       .  S
C1956      O1969   1.255       .  A
C1956      C3063   1.468       .  S
O1957      C1967   1.260       .  A
O1957     Al1959   1.905       .  S
O1958      C1971   1.258       .  A
O1958     Al1968   1.898       .  S
Al1959     O1972   1.871       .  S
Al1959     O1969   1.895       .  S
Al1959     O1964   1.773       .  S
O1960      C1967   1.260       .  A
O1960     Al1968   1.895       .  S
O1961      C1970   1.265       .  A
O1961     Al1968   1.906       .  S
O1962     Al1968   1.877       .  S
O1963      C1970   1.260       .  A
O1964     Al1968   1.790       .  S
O1965      C1966   1.274       .  A
C1966      C3123   1.477       .  S
C1967      C3273   1.474   1_455  S
C1970      C2743   1.485       .  S
C1971      O1972   1.258       .  A
C1971      C2700   1.462   1_455  S
O1973      C1988   1.259       .  A
O1973     Al1981   1.877       .  S
C1974      C2680   1.453       .  S
O1975     Al1977   1.876       .  S
O1976      C1978   1.257       .  A
O1976     Al1977   1.885       .  S
Al1977     O1985   1.902       .  S
Al1977     O1987   1.917       .  S
Al1977     O1986   1.788       .  S
C1978      O1991   1.257       .  A
C1978      C2733   1.462       .  S
O1979      C1989   1.255       .  A
O1979     Al1981   1.888       .  S
O1980      C1993   1.272       .  A
O1980     Al1990   1.933       .  S
Al1981     O1994   1.907       .  S
Al1981     O1991   1.896       .  S
Al1981     O1986   1.775       .  S
O1982      C1989   1.262       .  A
O1982     Al1990   1.932       .  S
O1983      C1992   1.264       .  A
O1983     Al1990   1.931       .  S
O1984     Al1990   1.927       .  S
O1985      C1992   1.266       .  A
O1986     Al1990   1.795       .  S
O1987      C1988   1.262       .  A
C1988      C2690   1.476       .  S
C1989      C3033   1.474       .  S
C1992      C2663   1.493       .  S
C1993      O1994   1.265       .  A
C1993      C2670   1.474       .  S
O1995      C2010   1.256       .  A
O1995     Al2003   1.870       .  S
C1996      C2630   1.454       .  S
O1997     Al1999   1.872       .  S
O1998      C2000   1.260       .  A
O1998     Al1999   1.895       .  S
Al1999     O2007   1.915       .  S
Al1999     O2009   1.914       .  S
Al1999     O2008   1.795       .  S
C2000      O2013   1.260       .  A
C2000      C2650   1.473       .  S
O2001      C2011   1.253       .  A
O2001     Al2003   1.892       .  S
O2002      C2015   1.276       .  A
O2002     Al2012   1.945       .  S
Al2003     O2016   1.912       .  S
Al2003     O2013   1.901       .  S
Al2003     O2008   1.774       .  S
O2004      C2011   1.257       .  A
O2004     Al2012   1.912       .  S
O2005      C2014   1.262       .  A
O2005     Al2012   1.917       .  S
O2006     Al2012   1.942       .  S
O2007      C2014   1.270       .  A
O2008     Al2012   1.790       .  S
O2009      C2010   1.261       .  A
C2010      C2640   1.473       .  S
C2011      C2903   1.469       .  S
C2014      C2660   1.492       .  S
C2015      O2016   1.267       .  A
C2015      C2620   1.484       .  S
O2017      C2032   1.257       .  A
C2018      O2028   1.272       .  A
C2018      O2019   1.255       .  A
C2018      C2963   1.458       .  S
O2019     Al2021   1.878       .  S
O2020      C2022   1.261       .  A
O2020     Al2021   1.898       .  S
Al2021     O2029   1.911       .  S
Al2021     O2031   1.919       .  S
Al2021     O2030   1.791       .  S
C2022      O2035   1.260       .  A
C2022      C2610   1.469   1_455  S
O2023      C2033   1.256       .  A
O2023     Al2025   1.891       .  S
O2024      C2037   1.275       .  A
O2024     Al2034   1.945       .  S
Al2025     O2035   1.907       .  S
Al2025     O2030   1.776       .  S
O2026      C2033   1.260       .  A
O2026     Al2034   1.913       .  S
O2027      C2036   1.265       .  A
O2027     Al2034   1.924       .  S
O2028     Al2034   1.944       .  S
O2029      C2036   1.270       .  A
O2030     Al2034   1.788       .  S
C2032      C2973   1.473   1_455  S
C2033      C3153   1.473       .  S
C2036      C2600   1.490       .  S
O2039      C2054   1.257       .  A
O2039     Al2047   1.869       .  S
C2040      O2050   1.271       .  A
C2040      O2041   1.260       .  A
C2040      C2990   1.450       .  S
O2041     Al2043   1.877       .  S
O2042      C2044   1.259       .  A
O2042     Al2043   1.891       .  S
Al2043     O2051   1.908       .  S
Al2043     O2053   1.911       .  S
Al2043     O2052   1.791       .  S
C2044      O2057   1.259       .  A
C2044      C2590   1.472   1_455  S
O2045      C2055   1.255       .  A
O2045     Al2047   1.896       .  S
O2046      C2059   1.274       .  A
O2046     Al2056   1.932       .  S
Al2047     O2060   1.913       .  S
Al2047     O2057   1.903       .  S
Al2047     O2052   1.774       .  S
O2048      C2055   1.258       .  A
O2048     Al2056   1.913       .  S
O2049      C2058   1.260       .  A
O2049     Al2056   1.917       .  S
O2050     Al2056   1.926       .  S
O2051      C2058   1.266       .  A
O2052     Al2056   1.793       .  S
O2053      C2054   1.261       .  A
C2054      C3003   1.471   1_455  S
C2055      C2580   1.472       .  S
C2058      C2603   1.491       .  S
C2059      O2060   1.267       .  A
C2059      C2673   1.475       .  S
O2061      C2076   1.259       .  A
C2062      O2072   1.265       .  A
C2062      O2063   1.258       .  A
C2062      C2703   1.445       .  S
O2063     Al2065   1.877       .  S
O2064      C2066   1.260   1_655  A
O2064     Al2065   1.894       .  S
Al2065     O2073   1.909       .  S
Al2065     O2075   1.919       .  S
Al2065     O2074   1.788       .  S
C2066      O2079   1.258   1_455  A
C2066      C3113   1.470       .  S
O2067      C2077   1.253       .  A
O2067     Al2069   1.883       .  S
O2068      C2081   1.269       .  A
O2068     Al2078   1.927       .  S
Al2069     O2079   1.897       .  S
Al2069     O2074   1.779       .  S
O2070      C2077   1.264       .  A
O2070     Al2078   1.920       .  S
O2071      C2080   1.263       .  A
O2071     Al2078   1.925       .  S
O2072     Al2078   1.911       .  S
O2073      C2080   1.269       .  A
O2074     Al2078   1.790       .  S
C2076      C2713   1.474   1_655  S
C2077      C2560   1.476       .  S
C2080      C2570   1.493       .  S
O2083      C2098   1.256       .  A
O2083     Al2091   1.867       .  S
C2084      O2094   1.273       .  A
C2084      O2085   1.257       .  A
C2084      C2753   1.455       .  S
O2085     Al2087   1.874       .  S
O2086      C2088   1.260   1_655  A
O2086     Al2087   1.897       .  S
Al2087     O2095   1.910       .  S
Al2087     O2097   1.907       .  S
Al2087     O2096   1.793       .  S
C2088      O2101   1.259   1_455  A
C2088      C2550   1.476       .  S
O2089      C2099   1.254       .  A
O2089     Al2091   1.891       .  S
O2090      C2103   1.278       .  A
O2090     Al2100   1.951       .  S
Al2091     O2104   1.909       .  S
Al2091     O2101   1.902       .  S
Al2091     O2096   1.776       .  S
O2092      C2099   1.259       .  A
O2092     Al2100   1.913       .  S
O2093      C2102   1.262       .  A
O2093     Al2100   1.924       .  S
O2094     Al2100   1.939       .  S
O2095      C2102   1.268       .  A
O2096     Al2100   1.791       .  S
O2097      C2098   1.260       .  A
C2098      C2763   1.466   1_655  S
C2099      C2540   1.470       .  S
C2102      C2573   1.497       .  S
C2103      O2104   1.266       .  A
C2103      C2823   1.485       .  S
O2105      C2120   1.261       .  A
O2105     Al2113   1.874       .  S
C2106      C3303   1.451   1_554  S
O2107     Al2109   1.940       .  S
O2108      C2110   1.260       .  A
O2108     Al2109   1.921       .  S
Al2109     O2117   1.934       .  S
Al2109     O2119   1.986       .  S
Al2109     O2118   1.793       .  S
C2110      O2123   1.251       .  A
C2110      C2613   1.473       .  S
O2111      C2121   1.271       .  A
O2111     Al2113   1.940       .  S
O2112      C2125   1.265       .  A
O2112     Al2122   1.913       .  S
Al2113     O2126   1.855       .  S
Al2113     O2123   1.879       .  S
Al2113     O2118   1.779       .  S
O2114      C2121   1.260       .  A
O2114     Al2122   1.887       .  S
O2115      C2124   1.261       .  A
O2115     Al2122   1.896       .  S
O2116     Al2122   1.833       .  S
O2117      C2124   1.270       .  A
O2118     Al2122   1.780       .  S
O2119      C2120   1.280       .  A
C2120      C2953   1.485       .  S
C2121      C2563   1.472       .  S
C2124      C2530   1.502       .  S
C2125      O2126   1.253       .  A
C2125      C3293   1.472       .  S
O2127      C2142   1.268       .  A
O2127     Al2135   1.912       .  S
C2128      C3243   1.457       .  S
O2129     Al2131   1.942       .  S
O2130      C2132   1.258       .  A
O2130     Al2131   1.919       .  S
Al2131     O2139   1.934       .  S
Al2131     O2141   1.945       .  S
Al2131     O2140   1.793       .  S
C2132      O2145   1.252       .  A
C2132      C2510   1.469       .  S
O2133      C2143   1.260       .  A
O2133     Al2135   1.904       .  S
O2134      C2147   1.260       .  A
O2134     Al2144   1.908       .  S
Al2135     O2148   1.872       .  S
Al2135     O2145   1.883       .  S
Al2135     O2140   1.773       .  S
O2136      C2143   1.262       .  A
O2136     Al2144   1.905       .  S
O2137      C2146   1.270       .  A
O2137     Al2144   1.917       .  S
O2138     Al2144   1.882       .  S
O2139      C2146   1.264       .  A
O2140     Al2144   1.789       .  S
O2141      C2142   1.277       .  A
C2142      C2913   1.482       .  S
C2143      C2520   1.476       .  S
C2146      C2533   1.499       .  S
C2147      O2148   1.256       .  A
C2147      C3233   1.473       .  S
O2149      C2164   1.267       .  A
O2149     Al2157   1.911       .  S
C2150      O2160   1.257       .  A
C2150      O2151   1.271       .  A
C2150      C2503   1.456       .  S
O2151     Al2153   1.936       .  S
O2152      C2154   1.261       .  A
O2152     Al2153   1.928       .  S
Al2153     O2161   1.928       .  S
Al2153     O2163   1.930       .  S
Al2153     O2162   1.793       .  S
C2154      O2167   1.255       .  A
C2154      C3103   1.476       .  S
O2155      C2165   1.262       .  A
O2155     Al2157   1.913       .  S
O2156      C2169   1.261       .  A
O2156     Al2166   1.922       .  S
Al2157     O2170   1.877       .  S
Al2157     O2167   1.887       .  S
Al2157     O2162   1.773       .  S
O2158      C2165   1.259       .  A
O2158     Al2166   1.884       .  S
O2159      C2168   1.269       .  A
O2159     Al2166   1.906       .  S
O2160     Al2166   1.880       .  S
O2161      C2168   1.265       .  A
O2162     Al2166   1.789       .  S
O2163      C2164   1.272       .  A
C2164      C3173   1.476       .  S
C2165      C3223   1.469       .  S
C2168      C2480   1.490       .  S
C2169      O2170   1.257       .  A
C2169      C2493   1.479       .  S
C2172      O2182   1.258       .  A
C2172      O2173   1.271       .  A
C2172      C2470   1.453       .  S
O2173     Al2175   1.931       .  S
O2174      C2176   1.259       .  A
O2174     Al2175   1.917       .  S
Al2175     O2183   1.919       .  S
Al2175     O2185   1.936       .  S
Al2175     O2184   1.792       .  S
C2176      O2189   1.254       .  A
C2176      C2653   1.466       .  S
O2177      C2187   1.260       .  A
O2177     Al2179   1.910       .  S
O2178     Al2188   1.913       .  S
Al2179     O2189   1.890       .  S
Al2179     O2184   1.774       .  S
O2180      C2187   1.260       .  A
O2180     Al2188   1.893       .  S
O2181      C2190   1.268       .  A
O2181     Al2188   1.909       .  S
O2182     Al2188   1.875       .  S
O2183      C2190   1.262       .  A
O2184     Al2188   1.793       .  S
O2185      C2186   1.273       .  A
C2187      C2773   1.472       .  S
C2190      C2483   1.490       .  S
C2191      O2192   1.256       .  A
C2191      C2460   1.467       .  S
O2193      C2208   1.266       .  A
O2193     Al2201   1.911       .  S
C2194      O2204   1.258       .  A
C2194      O2195   1.270       .  A
C2194      C2643   1.453       .  S
O2195     Al2197   1.928       .  S
O2196      C2198   1.260       .  A
O2196     Al2197   1.915       .  S
Al2197     O2205   1.934       .  S
Al2197     O2207   1.938       .  S
Al2197     O2206   1.792       .  S
C2198      O2211   1.254       .  A
C2198      C2420   1.467       .  S
O2199      C2209   1.260       .  A
O2199     Al2201   1.902       .  S
O2200      C2213   1.259       .  A
O2200     Al2210   1.909       .  S
Al2201     O2214   1.875       .  S
Al2201     O2211   1.888       .  S
Al2201     O2206   1.772       .  S
O2202      C2209   1.261       .  A
O2202     Al2210   1.897       .  S
O2203      C2212   1.266       .  A
O2203     Al2210   1.901       .  S
O2204     Al2210   1.887       .  S
O2205      C2212   1.264       .  A
O2206     Al2210   1.789       .  S
O2207      C2208   1.274       .  A
C2208      C2453   1.479       .  S
C2209      C2443   1.470       .  S
C2212      C2430   1.490       .  S
C2213      O2214   1.257       .  A
C2213      C2633   1.472       .  S
O2215      C2230   1.267       .  A
O2215     Al2223   1.907       .  S
C2216      O2226   1.257       .  A
C2216      O2217   1.272       .  A
C2216      C2693   1.455       .  S
O2217     Al2219   1.936       .  S
O2218      C2220   1.255       .  A
O2218     Al2219   1.909       .  S
Al2219     O2227   1.911       .  S
Al2219     O2229   1.934       .  S
Al2219     O2228   1.793       .  S
C2220      O2233   1.252       .  A
C2220      C2553   1.468       .  S
O2221      C2231   1.258       .  A
O2221     Al2223   1.888       .  S
O2222      C2235   1.257       .  A
O2222     Al2232   1.903       .  S
Al2223     O2236   1.873       .  S
Al2223     O2233   1.896       .  S
Al2223     O2228   1.775       .  S
O2224      C2231   1.263       .  A
O2224     Al2232   1.905       .  S
O2225      C2234   1.269       .  A
O2225     Al2232   1.915       .  S
O2226     Al2232   1.879       .  S
O2227      C2234   1.260       .  A
O2228     Al2232   1.798       .  S
O2229      C2230   1.274       .  A
C2230      C2720   1.477       .  S
C2231      C2583   1.469       .  S
C2234      C2433   1.485       .  S
C2235      O2236   1.257       .  A
C2235      C2683   1.468       .  S
O2237      C2252   1.257       .  A
C2238      O2248   1.273       .  A
C2238      O2239   1.255       .  A
C2238      C2490   1.458       .  S
O2239     Al2241   1.878       .  S
O2240      C2242   1.261       .  A
O2240     Al2241   1.891       .  S
Al2241     O2249   1.912       .  S
Al2241     O2251   1.918       .  S
Al2241     O2250   1.793       .  S
C2242      O2255   1.262       .  A
C2242      C3163   1.474       .  S
O2243      C2253   1.257       .  A
O2243     Al2245   1.902       .  S
O2244      C2257   1.275   1_556  A
O2244     Al2254   1.943       .  S
Al2245     O2255   1.916       .  S
Al2245     O2250   1.777       .  S
O2246      C2253   1.260       .  A
O2246     Al2254   1.919       .  S
O2247      C2256   1.265       .  A
O2247     Al2254   1.930       .  S
O2248     Al2254   1.945       .  S
O2249      C2256   1.270       .  A
O2250     Al2254   1.789       .  S
C2252      C2500   1.473       .  S
C2253      C2523   1.478       .  S
C2256      C2410   1.495       .  S
O2259      C2274   1.258       .  A
O2259     Al2267   1.874       .  S
C2260      O2270   1.269       .  A
C2260      O2261   1.257       .  A
C2260      C2463   1.450       .  S
O2261     Al2263   1.873       .  S
O2262      C2264   1.258       .  A
O2262     Al2263   1.886       .  S
Al2263     O2271   1.909       .  S
Al2263     O2273   1.918       .  S
Al2263     O2272   1.792       .  S
C2264      O2277   1.259       .  A
C2264      C2423   1.465       .  S
O2265      C2275   1.255       .  A
O2265     Al2267   1.892       .  S
O2266      C2279   1.272       .  A
O2266     Al2276   1.933       .  S
Al2267     O2280   1.910       .  S
Al2267     O2277   1.903       .  S
Al2267     O2272   1.777       .  S
O2268      C2275   1.260       .  A
O2268     Al2276   1.920       .  S
O2269      C2278   1.263       .  A
O2269     Al2276   1.925       .  S
O2270     Al2276   1.926       .  S
O2271      C2278   1.268       .  A
O2272     Al2276   1.793       .  S
O2273      C2274   1.262       .  A
C2274      C2473   1.474       .  S
C2275      C2400   1.472       .  S
C2278      C2413   1.494       .  S
C2279      O2280   1.266       .  A
C2279      C2803   1.477       .  S
O2281      C2296   1.264       .  A
O2281     Al2289   1.901       .  S
C2282      O2292   1.257       .  A
C2282      O2283   1.272       .  A
C2282      C2843   1.458       .  S
O2283     Al2285   1.938       .  S
O2284      C2286   1.261       .  A
O2284     Al2285   1.925       .  S
Al2285     O2293   1.936       .  S
Al2285     O2295   1.947       .  S
Al2285     O2294   1.791       .  S
C2286      O2299   1.254       .  A
C2286      C2593   1.469       .  S
O2287      C2297   1.258       .  A
O2287     Al2289   1.898       .  S
O2288      C2301   1.260       .  A
O2288     Al2298   1.914       .  S
Al2289     O2302   1.872       .  S
Al2289     O2299   1.886       .  S
Al2289     O2294   1.773       .  S
O2290      C2297   1.260       .  A
O2290     Al2298   1.894       .  S
O2291      C2300   1.267       .  A
O2291     Al2298   1.906       .  S
O2292     Al2298   1.880       .  S
O2293      C2300   1.265       .  A
O2294     Al2298   1.792       .  S
O2295      C2296   1.276       .  A
C2296      C2983   1.481       .  S
C2297      C2543   1.465       .  S
C2300      C2390   1.493       .  S
C2301      O2302   1.256       .  A
C2301      C2833   1.471       .  S
O2303      C2318   1.266       .  A
O2303     Al2311   1.911       .  S
C2304      O2314   1.257       .  A
C2304      O2305   1.270       .  A
C2304      C2793   1.452       .  S
O2305     Al2307   1.928       .  S
O2306      C2308   1.260       .  A
O2306     Al2307   1.920       .  S
Al2307     O2315   1.929       .  S
Al2307     O2317   1.939       .  S
Al2307     O2316   1.791       .  S
C2308      O2321   1.254       .  A
C2308      C2380   1.473       .  S
O2309      C2319   1.260       .  A
O2309     Al2311   1.906       .  S
O2310      C2323   1.260       .  A
O2310     Al2320   1.911       .  S
Al2311     O2324   1.872       .  S
Al2311     O2321   1.893       .  S
Al2311     O2316   1.775       .  S
O2312      C2319   1.261       .  A
O2312     Al2320   1.896       .  S
O2313      C2322   1.269       .  A
O2313     Al2320   1.911       .  S
O2314     Al2320   1.878       .  S
O2315      C2322   1.264       .  A
O2316     Al2320   1.795       .  S
O2317      C2318   1.274       .  A
C2318      C2863   1.480       .  S
C2319      C2403   1.471       .  S
C2322      C2393   1.495       .  S
C2323      O2324   1.257       .  A
C2323      C2780   1.470       .  S
O2325      C2340   1.257       .  A
C2326      O2336   1.267       .  A
C2326      O2327   1.258       .  A
C2326      C2920   1.445       .  S
O2327     Al2329   1.877       .  S
O2328      C2330   1.259       .  A
O2328     Al2329   1.892       .  S
Al2329     O2337   1.912       .  S
Al2329     O2339   1.920       .  S
Al2329     O2338   1.794       .  S
C2330      O2343   1.259       .  A
C2330      C2513   1.465       .  S
O2331      C2341   1.254       .  A
O2331     Al2333   1.894       .  S
O2332      C2345   1.272   1_556  A
O2332     Al2342   1.933       .  S
Al2333     O2343   1.897       .  S
Al2333     O2338   1.778       .  S
O2334      C2341   1.263       .  A
O2334     Al2342   1.920       .  S
O2335      C2344   1.264       .  A
O2335     Al2342   1.932       .  S
O2336     Al2342   1.914       .  S
O2337      C2344   1.269       .  A
O2338     Al2342   1.788       .  S
C2340      C2930   1.475       .  S
C2341      C3213   1.482       .  S
C2344      C2370   1.499       .  S
O2347      C2362   1.258       .  A
O2347     Al2355   1.873       .  S
C2348      O2358   1.272       .  A
C2348      O2349   1.259       .  A
C2348      C2870   1.454       .  S
O2349     Al2351   1.878       .  S
O2350      C2352   1.258       .  A
O2350     Al2351   1.891       .  S
Al2351     O2359   1.910       .  S
Al2351     O2361   1.911       .  S
Al2351     O2360   1.791       .  S
C2352      O2365   1.259       .  A
C2352      C2383   1.475       .  S
O2353      C2363   1.255       .  A
O2353     Al2355   1.893       .  S
O2354      C2367   1.277       .  A
O2354     Al2364   1.947       .  S
Al2355     O2368   1.916       .  S
Al2355     O2365   1.908       .  S
Al2355     O2360   1.778       .  S
O2356      C2363   1.259       .  A
O2356     Al2364   1.923       .  S
O2357      C2366   1.262       .  A
O2357     Al2364   1.930       .  S
O2358     Al2364   1.933       .  S
O2359      C2366   1.266       .  A
O2360     Al2364   1.796       .  S
O2361      C2362   1.262       .  A
C2362      C2883   1.473       .  S
C2363      C2440   1.472       .  S
C2366      C2373   1.499       .  S
C2367      O2368   1.267       .  A
C2367      C2623   1.484       .  S
C2369      C2370   1.409       .  A
C2369      C2374   1.408       .  A
C2369      H2375   1.083       .  S
C2370      C2371   1.409       .  A
C2371      C2372   1.410       .  A
C2371      H2376   1.083       .  S
C2372      C2373   1.409       .  A
C2372      H2377   1.083       .  S
C2373      C2374   1.409       .  A
C2374      H2378   1.083       .  S
C2379      C2380   1.403       .  A
C2379      C2384   1.395       .  A
C2379      H2385   1.083       .  S
C2380      C2381   1.405       .  A
C2381      C2382   1.401       .  A
C2381      H2386   1.083       .  S
C2382      C2383   1.405       .  A
C2382      H2387   1.083       .  S
C2383      C2384   1.404       .  A
C2384      H2388   1.083       .  S
C2389      C2390   1.408       .  A
C2389      C2394   1.404       .  A
C2389      H2395   1.083       .  S
C2390      C2391   1.407       .  A
C2391      C2392   1.409       .  A
C2391      H2396   1.083       .  S
C2392      C2393   1.410       .  A
C2392      H2397   1.083       .  S
C2393      C2394   1.407       .  A
C2394      H2398   1.083       .  S
C2399      C2400   1.404       .  A
C2399      C2404   1.400       .  A
C2399      H2405   1.083       .  S
C2400      C2401   1.404       .  A
C2401      C2402   1.395       .  A
C2401      H2406   1.083       .  S
C2402      C2403   1.402       .  A
C2402      H2407   1.083       .  S
C2403      C2404   1.405       .  A
C2404      H2408   1.083       .  S
C2409      C2410   1.409       .  A
C2409      C2414   1.407   1_565  A
C2409      H2415   1.083       .  S
C2410      C2411   1.408       .  A
C2411      C2412   1.406   1_565  A
C2411      H2416   1.083       .  S
C2412      C2413   1.409       .  A
C2412      H2417   1.083       .  S
C2413      C2414   1.407       .  A
C2414      H2418   1.083       .  S
C2419      C2420   1.404       .  A
C2419      C2424   1.399       .  A
C2419      H2425   1.083       .  S
C2420      C2421   1.402       .  A
C2421      C2422   1.391       .  A
C2421      H2426   1.083       .  S
C2422      C2423   1.401       .  A
C2422      H2427   1.083       .  S
C2423      C2424   1.404       .  A
C2424      H2428   1.083       .  S
C2429      C2430   1.407       .  A
C2429      C2434   1.407       .  A
C2429      H2435   1.083       .  S
C2430      C2431   1.407       .  A
C2431      C2432   1.400       .  A
C2431      H2436   1.083       .  S
C2432      C2433   1.404       .  A
C2432      H2437   1.083       .  S
C2433      C2434   1.409       .  A
C2434      H2438   1.083       .  S
C2439      C2440   1.403       .  A
C2439      C2444   1.397       .  A
C2439      H2445   1.083       .  S
C2440      C2441   1.405       .  A
C2441      C2442   1.397       .  A
C2441      H2446   1.083       .  S
C2442      C2443   1.403       .  A
C2442      H2447   1.083       .  S
C2443      C2444   1.404       .  A
C2444      H2448   1.083       .  S
C2449      C2450   1.405       .  A
C2449      C2454   1.405       .  A
C2449      H2455   1.083       .  S
C2450      C2451   1.406       .  A
C2451      C2452   1.404       .  A
C2451      H2456   1.084       .  S
C2452      C2453   1.405       .  A
C2452      H2457   1.083       .  S
C2453      C2454   1.405       .  A
C2454      H2458   1.083       .  S
C2459      C2460   1.407       .  A
C2459      C2464   1.390       .  A
C2459      H2465   1.083       .  S
C2460      C2461   1.400       .  A
C2461      C2462   1.399       .  A
C2461      H2466   1.083       .  S
C2462      C2463   1.408       .  A
C2462      H2467   1.084       .  S
C2463      C2464   1.396       .  A
C2464      H2468   1.084       .  S
C2469      C2470   1.398       .  A
C2469      C2474   1.393       .  A
C2469      H2475   1.084       .  S
C2470      C2471   1.407       .  A
C2471      C2472   1.400       .  A
C2471      H2476   1.084       .  S
C2472      C2473   1.402       .  A
C2472      H2477   1.083       .  S
C2473      C2474   1.407       .  A
C2474      H2478   1.083       .  S
C2479      C2480   1.408       .  A
C2479      C2484   1.404   1_565  A
C2479      H2485   1.083       .  S
C2480      C2481   1.407       .  A
C2481      C2482   1.405   1_565  A
C2481      H2486   1.083       .  S
C2482      C2483   1.408       .  A
C2482      H2487   1.083       .  S
C2483      C2484   1.407       .  A
C2484      H2488   1.083       .  S
C2489      C2490   1.408       .  A
C2489      C2494   1.403       .  A
C2489      H2495   1.084       .  S
C2490      C2491   1.400       .  A
C2491      C2492   1.394       .  A
C2491      H2496   1.084       .  S
C2492      C2493   1.407       .  A
C2492      H2497   1.083       .  S
C2493      C2494   1.404       .  A
C2494      H2498   1.083       .  S
C2499      C2500   1.407       .  A
C2499      C2504   1.393       .  A
C2499      H2505   1.083       .  S
C2500      C2501   1.401       .  A
C2501      C2502   1.401       .  A
C2501      H2506   1.083       .  S
C2502      C2503   1.409       .  A
C2502      H2507   1.084       .  S
C2503      C2504   1.398       .  A
C2504      H2508   1.084       .  S
C2509      C2510   1.404       .  A
C2509      C2514   1.396       .  A
C2509      H2515   1.083       .  S
C2510      C2511   1.403       .  A
C2511      C2512   1.395       .  A
C2511      H2516   1.083       .  S
C2512      C2513   1.402       .  A
C2512      H2517   1.083       .  S
C2513      C2514   1.402       .  A
C2514      H2518   1.083       .  S
C2519      C2520   1.403       .  A
C2519      C2524   1.398       .  A
C2519      H2525   1.083       .  S
C2520      C2521   1.406       .  A
C2521      C2522   1.401       .  A
C2521      H2526   1.083       .  S
C2522      C2523   1.404       .  A
C2522      H2527   1.083       .  S
C2523      C2524   1.406       .  A
C2524      H2528   1.083       .  S
C2529      C2534   1.399       .  A
C2529      H2535   1.083   1_556  S
C2530      C2531   1.407       .  A
C2531      C2532   1.415       .  A
C2531      H2536   1.083       .  S
C2532      H2537   1.083       .  S
C2533      C2534   1.402       .  A
C2534      H2538   1.083       .  S
C2539      C2540   1.404       .  A
C2539      C2544   1.394       .  A
C2539      H2545   1.083       .  S
C2540      C2541   1.403       .  A
C2541      C2542   1.398       .  A
C2541      H2546   1.083       .  S
C2542      C2543   1.404       .  A
C2542      H2547   1.083       .  S
C2543      C2544   1.401       .  A
C2544      H2548   1.084       .  S
C2549      C2550   1.407       .  A
C2549      C2554   1.399       .  A
C2549      H2555   1.083       .  S
C2550      C2551   1.404       .  A
C2551      C2552   1.396       .  A
C2551      H2556   1.083       .  S
C2552      C2553   1.403       .  A
C2552      H2557   1.083       .  S
C2553      C2554   1.401       .  A
C2554      H2558   1.083       .  S
C2559      C2560   1.398       .  A
C2559      C2564   1.386       .  A
C2559      H2565   1.083       .  S
C2560      C2561   1.412       .  A
C2561      C2562   1.405       .  A
C2561      H2566   1.083       .  S
C2562      C2563   1.401       .  A
C2562      H2567   1.083       .  S
C2563      C2564   1.407       .  A
C2564      H2568   1.082       .  S
C2569      C2570   1.406       .  A
C2569      C2574   1.408   1_565  A
C2569      H2575   1.083       .  S
C2570      C2571   1.409       .  A
C2571      C2572   1.406   1_565  A
C2571      H2576   1.083       .  S
C2572      C2573   1.408       .  A
C2572      H2577   1.083       .  S
C2573      C2574   1.411       .  A
C2574      H2578   1.083       .  S
C2579      C2580   1.405       .  A
C2579      C2584   1.396       .  A
C2579      H2585   1.083       .  S
C2580      C2581   1.402       .  A
C2581      C2582   1.397       .  A
C2581      H2586   1.083       .  S
C2582      C2583   1.405       .  A
C2582      H2587   1.083       .  S
C2583      C2584   1.401       .  A
C2584      H2588   1.083       .  S
C2589      C2590   1.404       .  A
C2589      C2594   1.398       .  A
C2589      H2595   1.083       .  S
C2590      C2591   1.404       .  A
C2591      C2592   1.396       .  A
C2591      H2596   1.083       .  S
C2592      C2593   1.403       .  A
C2592      H2597   1.084       .  S
C2593      C2594   1.403       .  A
C2594      H2598   1.083       .  S
C2599      C2600   1.408       .  A
C2599      C2604   1.406       .  A
C2599      H2605   1.083       .  S
C2600      C2601   1.407       .  A
C2601      C2602   1.405       .  A
C2601      H2606   1.083       .  S
C2602      C2603   1.407       .  A
C2602      H2607   1.083       .  S
C2603      C2604   1.408       .  A
C2604      H2608   1.083       .  S
C2609      C2610   1.408       .  A
C2609      C2614   1.398       .  A
C2609      H2615   1.083       .  S
C2610      C2611   1.399       .  A
C2611      C2612   1.393       .  A
C2611      H2616   1.083       .  S
C2612      C2613   1.408       .  A
C2612      H2617   1.084       .  S
C2613      C2614   1.401       .  A
C2614      H2618   1.083       .  S
C2619      C2620   1.406       .  A
C2619      C2624   1.405       .  A
C2619      H2625   1.083       .  S
C2620      C2621   1.406       .  A
C2621      C2622   1.408       .  A
C2621      H2626   1.083       .  S
C2622      C2623   1.407       .  A
C2622      H2627   1.083       .  S
C2623      C2624   1.406       .  A
C2624      H2628   1.083       .  S
C2629      C2630   1.407       .  A
C2629      C2634   1.399       .  A
C2629      H2635   1.084       .  S
C2630      C2631   1.399       .  A
C2631      C2632   1.394       .  A
C2631      H2636   1.084       .  S
C2632      C2633   1.407       .  A
C2632      H2637   1.083       .  S
C2633      C2634   1.402       .  A
C2634      H2638   1.083       .  S
C2639      C2640   1.403       .  A
C2639      C2644   1.400       .  A
C2639      H2645   1.083       .  S
C2640      C2641   1.407       .  A
C2641      C2642   1.392       .  A
C2641      H2646   1.083       .  S
C2642      C2643   1.397       .  A
C2642      H2647   1.084       .  S
C2643      C2644   1.406       .  A
C2644      H2648   1.084       .  S
C2649      C2650   1.404       .  A
C2649      C2654   1.396       .  A
C2649      H2655   1.083       .  S
C2650      C2651   1.406       .  A
C2651      C2652   1.397       .  A
C2651      H2656   1.083       .  S
C2652      C2653   1.401       .  A
C2652      H2657   1.083       .  S
C2653      C2654   1.403       .  A
C2654      H2658   1.084       .  S
C2659      C2660   1.407       .  A
C2659      C2664   1.406       .  A
C2659      H2665   1.083       .  S
C2661      C2662   1.406   1_554  A
C2661      H2666   1.083       .  S
C2662      C2663   1.406       .  A
C2662      H2667   1.083       .  S
C2664      H2668   1.083       .  S
C2669      C2670   1.404       .  A
C2669      C2674   1.404       .  A
C2669      H2675   1.083       .  S
C2670      C2671   1.405       .  A
C2671      C2672   1.402       .  A
C2671      H2676   1.083       .  S
C2672      C2673   1.404       .  A
C2672      H2677   1.083       .  S
C2673      C2674   1.405       .  A
C2674      H2678   1.083       .  S
C2679      C2680   1.409       .  A
C2679      C2684   1.399       .  A
C2679      H2685   1.084       .  S
C2680      C2681   1.396       .  A
C2681      C2682   1.392       .  A
C2681      H2686   1.084       .  S
C2682      C2683   1.407       .  A
C2682      H2687   1.083       .  S
C2683      C2684   1.400       .  A
C2684      H2688   1.083       .  S
C2689      C2690   1.407       .  A
C2689      C2694   1.393       .  A
C2689      H2695   1.083       .  S
C2690      C2691   1.404       .  A
C2691      C2692   1.400       .  A
C2691      H2696   1.083       .  S
C2692      C2693   1.406       .  A
C2692      H2697   1.084       .  S
C2693      C2694   1.399       .  A
C2694      H2698   1.084       .  S
C2699      C2700   1.405       .  A
C2699      C2704   1.389       .  A
C2699      H2705   1.083   1_655  S
C2700      C2701   1.401       .  A
C2701      C2702   1.396       .  A
C2701      H2706   1.083       .  S
C2702      C2703   1.406       .  A
C2702      H2707   1.084       .  S
C2703      C2704   1.396       .  A
C2704      H2708   1.084       .  S
C2709      C2710   1.406       .  A
C2709      C2714   1.399       .  A
C2709      H2715   1.084       .  S
C2710      C2711   1.399       .  A
C2711      C2712   1.394       .  A
C2711      H2716   1.084       .  S
C2712      C2713   1.407       .  A
C2712      H2717   1.083   1_455  S
C2713      C2714   1.403       .  A
C2714      H2718   1.083       .  S
C2719      C2720   1.405       .  A
C2719      C2724   1.405       .  A
C2719      H2725   1.083       .  S
C2720      C2721   1.405       .  A
C2721      C2722   1.402       .  A
C2721      H2726   1.084       .  S
C2722      C2723   1.404       .  A
C2722      H2727   1.083       .  S
C2723      C2724   1.405       .  A
C2724      H2728   1.083       .  S
C2729      C2730   1.404       .  A
C2729      C2734   1.397       .  A
C2729      H2735   1.083       .  S
C2730      C2731   1.402       .  A
C2731      C2732   1.391       .  A
C2731      H2736   1.083       .  S
C2732      C2733   1.401       .  A
C2732      H2737   1.084       .  S
C2733      C2734   1.403       .  A
C2734      H2738   1.083       .  S
C2739      C2740   1.407       .  A
C2739      C2744   1.402   1_545  A
C2739      H2745   1.083       .  S
C2740      C2741   1.408       .  A
C2741      C2742   1.405   1_545  A
C2741      H2746   1.083       .  S
C2742      C2743   1.406       .  A
C2742      H2747   1.083       .  S
C2743      C2744   1.406       .  A
C2744      H2748   1.083       .  S
C2749      C2750   1.407       .  A
C2749      C2754   1.393       .  A
C2749      H2755   1.083   1_655  S
C2750      C2751   1.403       .  A
C2751      C2752   1.401       .  A
C2751      H2756   1.083       .  S
C2752      C2753   1.408       .  A
C2752      H2757   1.084       .  S
C2753      C2754   1.398       .  A
C2754      H2758   1.084       .  S
C2759      C2760   1.397       .  A
C2759      C2764   1.390       .  A
C2759      H2765   1.084       .  S
C2760      C2761   1.406       .  A
C2761      C2762   1.397       .  A
C2761      H2766   1.084       .  S
C2762      C2763   1.401       .  A
C2762      H2767   1.083       .  S
C2763      C2764   1.407       .  A
C2764      H2768   1.083   1_455  S
C2769      C2770   1.403       .  A
C2769      C2774   1.394       .  A
C2769      H2775   1.083       .  S
C2770      C2771   1.405       .  A
C2771      C2772   1.401       .  A
C2771      H2776   1.083       .  S
C2772      C2773   1.405       .  A
C2772      H2777   1.083       .  S
C2773      C2774   1.403       .  A
C2774      H2778   1.083       .  S
C2779      C2780   1.403       .  A
C2779      C2784   1.399       .  A
C2779      H2785   1.083       .  S
C2780      C2781   1.406       .  A
C2781      C2782   1.390       .  A
C2781      H2786   1.083       .  S
C2782      C2783   1.397       .  A
C2782      H2787   1.084       .  S
C2783      C2784   1.406       .  A
C2784      H2788   1.084       .  S
C2789      C2790   1.402       .  A
C2789      C2794   1.399       .  A
C2789      H2795   1.083       .  S
C2790      C2791   1.408       .  A
C2791      C2792   1.392       .  A
C2791      H2796   1.083       .  S
C2792      C2793   1.397       .  A
C2792      H2797   1.084       .  S
C2793      C2794   1.406       .  A
C2794      H2798   1.084       .  S
C2799      C2800   1.405       .  A
C2799      C2804   1.403       .  A
C2799      H2805   1.083       .  S
C2800      C2801   1.405       .  A
C2801      C2802   1.405       .  A
C2801      H2806   1.083       .  S
C2802      C2803   1.405       .  A
C2802      H2807   1.084       .  S
C2803      C2804   1.404       .  A
C2804      H2808   1.083       .  S
C2809      C2810   1.406       .  A
C2809      C2814   1.396       .  A
C2809      H2815   1.083       .  S
C2810      C2811   1.405       .  A
C2811      C2812   1.398       .  A
C2811      H2816   1.083       .  S
C2812      C2813   1.403       .  A
C2812      H2817   1.083       .  S
C2813      C2814   1.401       .  A
C2814      H2818   1.083       .  S
C2819      C2820   1.407       .  A
C2819      C2824   1.410       .  A
C2819      H2825   1.083       .  S
C2820      C2821   1.405       .  A
C2821      C2822   1.404       .  A
C2821      H2826   1.083       .  S
C2822      C2823   1.406       .  A
C2822      H2827   1.084       .  S
C2823      C2824   1.407       .  A
C2824      H2828   1.083       .  S
C2829      C2830   1.407       .  A
C2829      C2834   1.400       .  A
C2829      H2835   1.084       .  S
C2830      C2831   1.398       .  A
C2831      C2832   1.391       .  A
C2831      H2836   1.085       .  S
C2832      C2833   1.406       .  A
C2832      H2837   1.083       .  S
C2833      C2834   1.403       .  A
C2834      H2838   1.083       .  S
C2839      C2840   1.402       .  A
C2839      C2844   1.401       .  A
C2839      H2845   1.083       .  S
C2840      C2841   1.408       .  A
C2841      C2842   1.395       .  A
C2841      H2846   1.083       .  S
C2842      C2843   1.398       .  A
C2842      H2847   1.084       .  S
C2843      C2844   1.408       .  A
C2844      H2848   1.084       .  S
C2849      C2854   1.410       .  A
C2849      H2855   1.083       .  S
C2850      C2851   1.409       .  A
C2851      C2852   1.408   1_556  A
C2851      H2856   1.083       .  S
C2852      H2857   1.083       .  S
C2853      C2854   1.410       .  A
C2854      H2858   1.083       .  S
C2859      C2860   1.405       .  A
C2859      C2864   1.406       .  A
C2859      H2865   1.083       .  S
C2860      C2861   1.406       .  A
C2861      C2862   1.405       .  A
C2861      H2866   1.083       .  S
C2862      C2863   1.405       .  A
C2862      H2867   1.083       .  S
C2863      C2864   1.406       .  A
C2864      H2868   1.083       .  S
C2869      C2870   1.398       .  A
C2869      C2874   1.392       .  A
C2869      H2875   1.084       .  S
C2870      C2871   1.408       .  A
C2871      C2872   1.402       .  A
C2871      H2876   1.084       .  S
C2872      C2873   1.403       .  A
C2872      H2877   1.083       .  S
C2873      C2874   1.406       .  A
C2874      H2878   1.083       .  S
C2879      C2880   1.407       .  A
C2879      C2884   1.399       .  A
C2879      H2885   1.084       .  S
C2880      C2881   1.398       .  A
C2881      C2882   1.393       .  A
C2881      H2886   1.084       .  S
C2882      C2883   1.407       .  A
C2882      H2887   1.083       .  S
C2883      C2884   1.403       .  A
C2884      H2888   1.083       .  S
C2889      C2890   1.404       .  A
C2889      C2894   1.396       .  A
C2889      H2895   1.083       .  S
C2890      C2891   1.404       .  A
C2891      C2892   1.401       .  A
C2891      H2896   1.083       .  S
C2892      C2893   1.405       .  A
C2892      H2897   1.083       .  S
C2893      C2894   1.403       .  A
C2894      H2898   1.083       .  S
C2899      C2900   1.405       .  A
C2899      C2904   1.398       .  A
C2899      H2905   1.083       .  S
C2900      C2901   1.401       .  A
C2901      C2902   1.394       .  A
C2901      H2906   1.083       .  S
C2902      C2903   1.404       .  A
C2902      H2907   1.083       .  S
C2903      C2904   1.403       .  A
C2904      H2908   1.083       .  S
C2909      C2910   1.406       .  A
C2909      C2914   1.406       .  A
C2909      H2915   1.083       .  S
C2910      C2911   1.405       .  A
C2911      C2912   1.406       .  A
C2911      H2916   1.083       .  S
C2912      C2913   1.406       .  A
C2912      H2917   1.083       .  S
C2913      C2914   1.406       .  A
C2914      H2918   1.083       .  S
C2919      C2920   1.405       .  A
C2919      C2924   1.395       .  A
C2919      H2925   1.084       .  S
C2920      C2921   1.396       .  A
C2921      C2922   1.390       .  A
C2921      H2926   1.084       .  S
C2922      C2923   1.406       .  A
C2922      H2927   1.083       .  S
C2923      C2924   1.400       .  A
C2924      H2928   1.083       .  S
C2929      C2930   1.407       .  A
C2929      C2934   1.392       .  A
C2929      H2935   1.083       .  S
C2930      C2931   1.403       .  A
C2931      C2932   1.400       .  A
C2931      H2936   1.083       .  S
C2932      C2933   1.407       .  A
C2932      H2937   1.084       .  S
C2933      C2934   1.398       .  A
C2934      H2938   1.084       .  S
C2939      C2940   1.408       .  A
C2939      C2944   1.404       .  A
C2939      H2945   1.083       .  S
C2940      C2941   1.407       .  A
C2941      C2942   1.406       .  A
C2941      H2946   1.083       .  S
C2942      C2943   1.408       .  A
C2942      H2947   1.083       .  S
C2943      C2944   1.407       .  A
C2944      H2948   1.083       .  S
C2949      C2950   1.407       .  A
C2949      C2954   1.405       .  A
C2949      H2955   1.083       .  S
C2950      C2951   1.402       .  A
C2951      C2952   1.403       .  A
C2951      H2956   1.083       .  S
C2952      C2953   1.409       .  A
C2952      H2957   1.083       .  S
C2953      C2954   1.405       .  A
C2954      H2958   1.083       .  S
C2959      C2960   1.408       .  A
C2959      C2964   1.394       .  A
C2959      H2965   1.083   1_455  S
C2960      C2961   1.403       .  A
C2961      C2962   1.402       .  A
C2961      H2966   1.083       .  S
C2962      C2963   1.408       .  A
C2962      H2967   1.084       .  S
C2963      C2964   1.399       .  A
C2964      H2968   1.084       .  S
C2969      C2970   1.399       .  A
C2969      C2974   1.394       .  A
C2969      H2975   1.084       .  S
C2970      C2971   1.408       .  A
C2971      C2972   1.400       .  A
C2971      H2976   1.084       .  S
C2972      C2973   1.401       .  A
C2972      H2977   1.083       .  S
C2973      C2974   1.407       .  A
C2974      H2978   1.083   1_655  S
C2979      C2980   1.405       .  A
C2979      C2984   1.404       .  A
C2980      C2981   1.406       .  A
C2981      C2982   1.407       .  A
C2981      H2986   1.083       .  S
C2982      C2983   1.406       .  A
C2982      H2987   1.083       .  S
C2983      C2984   1.407       .  A
C2984      H2988   1.084       .  S
C2989      C2990   1.397       .  A
C2989      C2994   1.392       .  A
C2989      H2995   1.084       .  S
C2990      C2991   1.407       .  A
C2991      C2992   1.398       .  A
C2991      H2996   1.084       .  S
C2992      C2993   1.401       .  A
C2992      H2997   1.083       .  S
C2993      C2994   1.407       .  A
C2994      H2998   1.083   1_455  S
C2999      C3000   1.407       .  A
C2999      C3004   1.399       .  A
C2999      H3005   1.084       .  S
C3000      C3001   1.397       .  A
C3001      C3002   1.391       .  A
C3001      H3006   1.084       .  S
C3002      C3003   1.407       .  A
C3002      H3007   1.083   1_655  S
C3003      C3004   1.402       .  A
C3004      H3008   1.083       .  S
C3009      C3010   1.405       .  A
C3009      C3014   1.398       .  A
C3009      H3015   1.083       .  S
C3010      C3011   1.405       .  A
C3011      C3012   1.396       .  A
C3011      H3016   1.083       .  S
C3012      C3013   1.402       .  A
C3012      H3017   1.084       .  S
C3013      C3014   1.403       .  A
C3014      H3018   1.083       .  S
C3019      C3020   1.407       .  A
C3019      C3024   1.405       .  A
C3019      H3025   1.083       .  S
C3020      C3021   1.410       .  A
C3021      C3022   1.408       .  A
C3021      H3026   1.083       .  S
C3022      C3023   1.406       .  A
C3022      H3027   1.083       .  S
C3023      C3024   1.408       .  A
C3024      H3028   1.083       .  S
C3029      C3030   1.404       .  A
C3029      C3034   1.398       .  A
C3029      H3035   1.083       .  S
C3030      C3031   1.404       .  A
C3031      C3032   1.398       .  A
C3031      H3036   1.083       .  S
C3032      C3033   1.404       .  A
C3032      H3037   1.083       .  S
C3033      C3034   1.404       .  A
C3034      H3038   1.083       .  S
C3039      C3040   1.405       .  A
C3039      C3044   1.398       .  A
C3039      H3045   1.083       .  S
C3040      C3041   1.402       .  A
C3041      C3042   1.389       .  A
C3041      H3046   1.083       .  S
C3042      C3043   1.401       .  A
C3042      H3047   1.084       .  S
C3043      C3044   1.402       .  A
C3044      H3048   1.083       .  S
C3049      C3050   1.405       .  A
C3049      C3054   1.406       .  A
C3049      H3055   1.083       .  S
C3050      C3051   1.407       .  A
C3051      C3052   1.407       .  A
C3051      H3056   1.083       .  S
C3052      C3053   1.405       .  A
C3052      H3057   1.083       .  S
C3053      C3054   1.407       .  A
C3054      H3058   1.084       .  S
C3059      C3060   1.405       .  A
C3059      C3064   1.397       .  A
C3059      H3065   1.083       .  S
C3060      C3061   1.403       .  A
C3061      C3062   1.396       .  A
C3061      H3066   1.083       .  S
C3062      C3063   1.404       .  A
C3062      H3067   1.083       .  S
C3063      C3064   1.401       .  A
C3064      H3068   1.083       .  S
C3069      C3070   1.406       .  A
C3069      C3074   1.405       .  A
C3069      H3075   1.083       .  S
C3070      C3071   1.404       .  A
C3071      C3072   1.402       .  A
C3071      H3076   1.083       .  S
C3072      C3073   1.405       .  A
C3072      H3077   1.084       .  S
C3073      C3074   1.404       .  A
C3074      H3078   1.083       .  S
C3079      C3080   1.403       .  A
C3079      C3084   1.398       .  A
C3079      H3085   1.083       .  S
C3080      C3081   1.405       .  A
C3081      C3082   1.401       .  A
C3081      H3086   1.083       .  S
C3082      C3083   1.406       .  A
C3082      H3087   1.083       .  S
C3083      C3084   1.405       .  A
C3084      H3088   1.083       .  S
C3089      C3090   1.408       .  A
C3089      C3094   1.406       .  A
C3089      H3095   1.083       .  S
C3090      C3091   1.408       .  A
C3091      C3092   1.403       .  A
C3091      H3096   1.083       .  S
C3092      C3093   1.406       .  A
C3092      H3097   1.083       .  S
C3093      C3094   1.407       .  A
C3094      H3098   1.083       .  S
C3099      C3100   1.404       .  A
C3099      C3104   1.397       .  A
C3099      H3105   1.083       .  S
C3100      C3101   1.404       .  A
C3101      C3102   1.400       .  A
C3101      H3106   1.083       .  S
C3102      C3103   1.406       .  A
C3102      H3107   1.083       .  S
C3103      C3104   1.404       .  A
C3104      H3108   1.083       .  S
C3109      C3110   1.401       .  A
C3109      C3114   1.397       .  A
C3109      H3115   1.083       .  S
C3110      C3111   1.401       .  A
C3111      C3112   1.393       .  A
C3111      H3116   1.082       .  S
C3112      C3113   1.403       .  A
C3112      H3117   1.083       .  S
C3113      C3114   1.407       .  A
C3114      H3118   1.083       .  S
C3119      C3120   1.405       .  A
C3119      C3124   1.404       .  A
C3119      H3125   1.082       .  S
C3120      C3121   1.404       .  A
C3121      C3122   1.404       .  A
C3121      H3126   1.083       .  S
C3122      C3123   1.404       .  A
C3122      H3127   1.083       .  S
C3123      C3124   1.405       .  A
C3124      H3128   1.083       .  S
C3129      C3130   1.408       .  A
C3129      C3134   1.395       .  A
C3129      H3135   1.083       .  S
C3130      C3131   1.404       .  A
C3131      C3132   1.400       .  A
C3131      H3136   1.083       .  S
C3132      C3133   1.407       .  A
C3132      H3137   1.084       .  S
C3133      C3134   1.399       .  A
C3134      H3138   1.084       .  S
C3139      C3140   1.406       .  A
C3139      C3144   1.400       .  A
C3139      H3145   1.084       .  S
C3140      C3141   1.398       .  A
C3141      C3142   1.391       .  A
C3141      H3146   1.084       .  S
C3142      C3143   1.407       .  A
C3142      H3147   1.083       .  S
C3143      C3144   1.403       .  A
C3144      H3148   1.083       .  S
C3149      C3150   1.403       .  A
C3149      C3154   1.397       .  A
C3149      H3155   1.083       .  S
C3150      C3151   1.401       .  A
C3151      C3152   1.395       .  A
C3151      H3156   1.084       .  S
C3152      C3153   1.406       .  A
C3152      H3157   1.083       .  S
C3153      C3154   1.404       .  A
C3154      H3158   1.083       .  S
C3159      C3160   1.406       .  A
C3159      C3164   1.394       .  A
C3159      H3165   1.084       .  S
C3160      C3161   1.401       .  A
C3161      C3162   1.400       .  A
C3162      C3163   1.408       .  A
C3163      C3164   1.402       .  A
C3164      H3168   1.083       .  S
C3169      C3170   1.408       .  A
C3169      C3174   1.403       .  A
C3169      H3175   1.083       .  S
C3170      C3171   1.405       .  A
C3171      C3172   1.404       .  A
C3171      H3176   1.083       .  S
C3172      C3173   1.405       .  A
C3172      H3177   1.084       .  S
C3173      C3174   1.403       .  A
C3174      H3178   1.083       .  S
C3179      C3180   1.415       .  A
C3179      C3184   1.384       .  A
C3179      H3185   1.083       .  S
C3180      C3181   1.397       .  A
C3181      C3182   1.402       .  A
C3181      H3186   1.083       .  S
C3182      C3183   1.414       .  A
C3182      H3187   1.082       .  S
C3183      C3184   1.388       .  A
C3184      H3188   1.084       .  S
C3189      C3190   1.405       .  A
C3189      C3194   1.401       .  A
C3190      C3191   1.396       .  A
C3191      C3192   1.384       .  A
C3191      H3196   1.084       .  S
C3192      C3193   1.405       .  A
C3192      H3197   1.083       .  S
C3193      C3194   1.403       .  A
C3194      H3198   1.083       .  S
C3199      C3200   1.408       .  A
C3199      C3204   1.414   1_556  A
C3199      H3205   1.083       .  S
C3201      C3202   1.398       .  A
C3201      H3206   1.083       .  S
C3202      C3203   1.403       .  A
C3202      H3207   1.083       .  S
C3204      H3208   1.083       .  S
C3209      C3210   1.403       .  A
C3209      C3214   1.409       .  A
C3209      H3215   1.083       .  S
C3210      C3211   1.406       .  A
C3211      C3212   1.386       .  A
C3211      H3216   1.082       .  S
C3212      C3213   1.399       .  A
C3212      H3217   1.083       .  S
C3213      C3214   1.413       .  A
C3214      H3218   1.083       .  S
C3219      C3220   1.400       .  A
C3219      C3224   1.391       .  A
C3219      H3225   1.083       .  S
C3220      C3221   1.403       .  A
C3221      C3222   1.400       .  A
C3221      H3226   1.083       .  S
C3222      C3223   1.405       .  A
C3222      H3227   1.083       .  S
C3223      C3224   1.403       .  A
C3224      H3228   1.083       .  S
C3229      C3230   1.399       .  A
C3229      C3234   1.395       .  A
C3229      H3235   1.084       .  S
C3230      C3231   1.407       .  A
C3231      C3232   1.398       .  A
C3231      H3236   1.084       .  S
C3232      C3233   1.402       .  A
C3232      H3237   1.083       .  S
C3233      C3234   1.408       .  A
C3234      H3238   1.083       .  S
C3239      C3240   1.407       .  A
C3239      C3244   1.395       .  A
C3239      H3245   1.083       .  S
C3240      C3241   1.403       .  A
C3241      C3242   1.401       .  A
C3241      H3246   1.083       .  S
C3242      C3243   1.407       .  A
C3242      H3247   1.084       .  S
C3243      C3244   1.399       .  A
C3244      H3248   1.084       .  S
C3249      C3250   1.406       .  A
C3249      C3254   1.407       .  A
C3249      H3255   1.083       .  S
C3250      C3251   1.405       .  A
C3251      C3252   1.405       .  A
C3251      H3256   1.083       .  S
C3252      C3253   1.406       .  A
C3252      H3257   1.084       .  S
C3253      C3254   1.405       .  A
C3259      C3260   1.401       .  A
C3259      C3264   1.396       .  A
C3259      H3265   1.083       .  S
C3260      C3261   1.403       .  A
C3261      C3262   1.393       .  A
C3261      H3266   1.083       .  S
C3262      C3263   1.402       .  A
C3262      H3267   1.083       .  S
C3263      C3264   1.405       .  A
C3264      H3268   1.083       .  S
C3269      C3270   1.406       .  A
C3269      C3274   1.400       .  A
C3269      H3275   1.083       .  S
C3270      C3271   1.402       .  A
C3271      C3272   1.396       .  A
C3271      H3276   1.083       .  S
C3272      C3273   1.404       .  A
C3272      H3277   1.083       .  S
C3273      C3274   1.405       .  A
C3274      H3278   1.083       .  S
C3279      C3280   1.404       .  A
C3279      C3284   1.402       .  A
C3279      H3285   1.083       .  S
C3280      C3281   1.405       .  A
C3281      C3282   1.403       .  A
C3281      H3286   1.084       .  S
C3282      C3283   1.403       .  A
C3282      H3287   1.083       .  S
C3283      C3284   1.404       .  A
C3284      H3288   1.083       .  S
C3289      C3290   1.415       .  A
C3289      C3294   1.402       .  A
C3289      H3295   1.082       .  S
C3290      C3291   1.386       .  A
C3291      C3292   1.382       .  A
C3291      H3296   1.084       .  S
C3292      C3293   1.415       .  A
C3292      H3297   1.083       .  S
C3293      C3294   1.396       .  A
C3294      H3298   1.083       .  S
C3299      C3300   1.406       .  A
C3299      C3304   1.384       .  A
C3299      H3305   1.083       .  S
C3300      C3301   1.405       .  A
C3301      C3302   1.401       .  A
C3301      H3306   1.083       .  S
C3302      C3303   1.404       .  A
C3302      H3307   1.083       .  S
C3303      C3304   1.397       .  A
C3304      H3308   1.084       .  S
C3309      C3310   1.407       .  A
C3309      C3314   1.404       .  A
C3309      H3315   1.083       .  S
C3310      C3311   1.410       .  A
C3311      C3312   1.407       .  A
C3311      H3316   1.083       .  S
C3312      C3313   1.405       .  A
C3312      H3317   1.083       .  S
C3313      C3314   1.407       .  A
C3314      H3318   1.083       .  S
C3319      C3320   1.403       .  A
C3319      C3324   1.397       .  A
C3319      H3325   1.083       .  S
C3320      C3321   1.406       .  A
C3321      C3322   1.399       .  A
C3321      H3326   1.083       .  S
C3322      C3323   1.403       .  A
C3322      H3327   1.083       .  S
C3323      C3324   1.405       .  A
C3324      H3328   1.083       .  S
