geometry optimzed in LAMMPS
_audit_creation_date              2020-12-01 
_audit_creation_method            'lammps2cif' 
_symmetry_space_group_name_H-M    'P1' 
_symmetry_Int_Tables_number       1 
_symmetry_cell_setting            triclinic 
loop_ 
_symmetry_equiv_pos_as_xyz 
  x,y,z 
_cell_length_a                    51.41358564 
_cell_length_b                    52.07218040344359 
_cell_length_c                    38.343820068204515 
_cell_angle_alpha                 89.83141609708754 
_cell_angle_beta                  90.30762907813991 
_cell_angle_gamma                 90.29049823574427 
loop_ 
_atom_site_label 
_atom_site_type_symbol 
_atom_site_fract_x 
_atom_site_fract_y 
_atom_site_fract_z 
_atom_site_charge 
O1          O  0.81389558  0.74937850  0.36175945    -0.86300
O2          O  0.78454618  0.78894394  0.32629081    -0.83400
C3          C  0.78046413  0.80806335  0.30640654     0.97100
O4          O  0.79881982  0.82390028  0.30077318    -0.83400
O5          O  0.82724141  0.84188069  0.36061962    -0.86000
C6          C  0.84219967  0.84010824  0.38699782     1.01700
O7          O  0.85816977  0.82179861  0.38964304    -0.78800
O8          O  0.83183593  0.77600081  0.39874598    -0.79000
C9          C  0.82163404  0.75446485  0.39229911     1.01600
O10         O  0.84688064  0.74775099  0.30325384    -0.86300
O11         O  0.81618524  0.78219291  0.26881623    -0.83400
C12         C  0.83235207  0.79558871  0.25229687     0.97200
O13         O  0.84664380  0.81179003  0.26796781    -0.83400
O14         O  0.87422731  0.83339904  0.32382206    -0.86000
C15         C  0.89356293  0.81862908  0.32653510     1.01600
O16         O  0.89047495  0.79645908  0.33886946    -0.78800
O17         O  0.86678612  0.75121823  0.35375338    -0.79000
C18         C  0.86303519  0.73961972  0.32544622     1.01600
Cr19       Cr  0.81681641  0.76924570  0.31693235     1.93700
Cr20       Cr  0.83662208  0.82534371  0.31505416     1.93200
Cr21       Cr  0.85995211  0.78714293  0.36760283     1.39100
O22         O  0.83749293  0.79399596  0.33353653    -1.24100
O23         O  0.66235382  0.76134796  0.14154847    -0.86300
O24         O  0.69412862  0.79818317  0.17833410    -0.83400
C25         C  0.69955745  0.81618530  0.19942160     0.97100
O26         O  0.68223389  0.83250337  0.20648071    -0.83400
O27         O  0.65611122  0.85221912  0.14576401    -0.86000
C28         C  0.64117671  0.85138888  0.11922192     1.01700
O29         O  0.62244647  0.83548422  0.11778080    -0.78800
O30         O  0.64241055  0.78794155  0.10616782    -0.79000
C31         C  0.65405516  0.76709512  0.11142914     1.01600
O32         O  0.63039696  0.75902702  0.20106414    -0.86300
O33         O  0.66200611  0.79149079  0.23619578    -0.83400
C34         C  0.64635113  0.80519074  0.25291883     0.97200
O35         O  0.63368263  0.82310061  0.23815199    -0.83400
O36         O  0.60836584  0.84882383  0.18272830    -0.86000
C37         C  0.58745033  0.83625763  0.17949807     1.01600
O38         O  0.58855309  0.81313197  0.17016463    -0.78800
O39         O  0.60732213  0.76518738  0.15388383    -0.79000
C40         C  0.61238520  0.75211533  0.18077428     1.01600
Cr41       Cr  0.66083407  0.77980024  0.18744881     1.93700
Cr42       Cr  0.64494082  0.83679284  0.19150273     1.93200
Cr43       Cr  0.61714300  0.80096709  0.13985944     1.39100
O44         O  0.64124601  0.80578707  0.17255181    -1.24100
O45         O  0.33569279  0.79112257  0.35179886    -0.86300
O46         O  0.35747279  0.83826603  0.36737394    -0.83400
C47         C  0.34012569  0.85541062  0.36863852     0.97100
O48         O  0.32401380  0.85607956  0.39379449    -0.83400
O49         O  0.29423374  0.83552837  0.45132287    -0.86000
C50         C  0.27646906  0.82007445  0.44180249     1.01700
O51         O  0.28202928  0.80248074  0.42021279    -0.78800
O52         O  0.31366037  0.76470997  0.38506362    -0.79000
C53         C  0.32398110  0.77002364  0.35603902     1.01600
O54         O  0.36802814  0.76708102  0.40124680    -0.86300
O55         O  0.38810314  0.81341734  0.42077882    -0.83400
C56         C  0.39018285  0.83602244  0.43165899     0.97200
O57         O  0.36987215  0.84940503  0.43454556    -0.83400
O58         O  0.34569324  0.82275619  0.99124308    -0.86000
C59         C  0.33137330  0.80507878  0.00380344     1.01600
O60         O  0.31099611  0.79332237  0.48055731    -0.78800
O61         O  0.34295737  0.75989835  0.44653379    -0.79000
C62         C  0.36140427  0.75349453  0.42692411     1.01600
Cr63       Cr  0.36019542  0.80309328  0.38796742     1.93700
Cr64       Cr  0.33246455  0.83855493  0.43955050     1.93200
Cr65       Cr  0.31391565  0.78241583  0.43149127     1.39100
O66         O  0.33521079  0.80800487  0.41907090    -1.24100
O67         O  0.13015050  0.77013558  0.13416067    -0.86300
O68         O  0.13694970  0.82230236  0.14237164    -0.83400
C69         C  0.14029268  0.84580904  0.13584501     0.97100
O70         O  0.14166644  0.85350508  0.10403697    -0.83400
O71         O  0.18311766  0.82888650  0.06334298    -0.86000
C72         C  0.19357221  0.81062754  0.04633914     1.01700
O73         O  0.18107905  0.78975890  0.04266695    -0.78800
O74         O  0.16587463  0.76370875  0.10353121    -0.79000
C75         C  0.15177770  0.75897530  0.12975556     1.01600
O76         O  0.08809428  0.78029145  0.08600087    -0.86300
O77         O  0.09304708  0.83225704  0.09896626    -0.83400
C78         C  0.08948159  0.84109806  0.06862421     0.97200
O79         O  0.10719968  0.83964912  0.04621299    -0.83400
O80         O  0.14842143  0.81851367  0.00856080    -0.86000
C81         C  0.13908921  0.79210548  0.49751967     1.01600
O82         O  0.12694414  0.78408284  0.02012324    -0.78800
O83         O  0.11785515  0.75229893  0.07334432    -0.79000
C84         C  0.09436061  0.75802223  0.07661347     1.01600
Cr85       Cr  0.11383718  0.80147372  0.11292042     1.93700
Cr86       Cr  0.14430964  0.83324588  0.05772904     1.93200
Cr87       Cr  0.14754054  0.77456536  0.06078667     1.39100
O88         O  0.13644663  0.80334041  0.07857027    -1.24100
O89         O  0.31500417  0.73426287  0.13757984    -0.86300
O90         O  0.28743017  0.69337793  0.17324432    -0.83400
C91         C  0.28401509  0.67554765  0.19537839     0.97100
O92         O  0.30307049  0.66172849  0.20432883    -0.83400
O93         O  0.33204883  0.64328065  0.14656908    -0.86000
C94         C  0.34667385  0.64557494  0.12002277     1.01700
O95         O  0.36264162  0.66405388  0.11759875    -0.78800
O96         O  0.33639553  0.70842920  0.10394080    -0.79000
C97         C  0.32503803  0.72944299  0.10836084     1.01600
O98         O  0.34536585  0.74031955  0.19774777    -0.86300
O99         O  0.31668389  0.70482683  0.23255904    -0.83400
C100        C  0.33500297  0.69575545  0.25033533     0.97200
O101        O  0.34999211  0.67896536  0.23732169    -0.83400
O102        O  0.37817295  0.65404201  0.18426161    -0.86000
C103        C  0.39707601  0.66904033  0.17948872     1.01600
O104        O  0.39350031  0.69143758  0.16847030    -0.78800
O105        O  0.36894196  0.73575570  0.15094278    -0.79000
C106        C  0.36240675  0.74872255  0.17719320     1.01600
Cr107      Cr  0.31765140  0.71603382  0.18363450     1.93700
Cr108      Cr  0.34065654  0.66173478  0.19145283     1.93200
Cr109      Cr  0.36356309  0.69922511  0.13783816     1.39100
O110        O  0.34042550  0.69228390  0.17052772    -1.24100
O111        O  0.18169367  0.72846164  0.36848123    -0.86300
O112        O  0.20704420  0.68935774  0.32994590    -0.83400
C113        C  0.20972395  0.67212879  0.30688909     0.97100
O114        O  0.19002105  0.65980664  0.29621165    -0.83400
O115        O  0.15954276  0.63910698  0.35111857    -0.86000
C116        C  0.14555453  0.64058565  0.37842061     1.01700
O117        O  0.13058260  0.65935754  0.38309433    -0.78800
O118        O  0.15925581  0.70184477  0.40052284    -0.79000
C119        C  0.17340818  0.72156439  0.39774067     1.01600
O120        O  0.15042876  0.73961017  0.31088654    -0.86300
O121        O  0.17914263  0.70427989  0.27266080    -0.83400
C122        C  0.16051487  0.69869652  0.25344248     0.97200
O123        O  0.14444931  0.68147274  0.26356588    -0.83400
O124        O  0.11438472  0.65379040  0.31364305    -0.86000
C125        C  0.09569867  0.66794904  0.32206374     1.01600
O126        O  0.09985704  0.68936908  0.33634774    -0.78800
O127        O  0.12682611  0.73273792  0.35757556    -0.79000
C128        C  0.13315589  0.74679791  0.33215349     1.01600
Cr129      Cr  0.17764821  0.71338397  0.32174728     1.93700
Cr130      Cr  0.15227296  0.66073282  0.30803575     1.93200
Cr131      Cr  0.13108678  0.69532529  0.36641928     1.39100
O132        O  0.15373375  0.68973184  0.33248977    -1.24100
O133        O  0.97939656  0.38693082  0.00898278    -0.86300
O134        O  0.92671300  0.39288403  0.01125861    -0.83400
C135        C  0.90315279  0.39403485  0.00238763     0.97100
O136        O  0.89889510  0.39528375  0.47405067    -0.83400
O137        O  0.92530985  0.43679231  0.43763963    -0.86000
C138        C  0.94363161  0.44815243  0.42167062     1.01700
O139        O  0.96613600  0.43800673  0.42141082    -0.78800
O140        O  0.99057129  0.42021497  0.48487109    -0.79000
C141        C  0.99165496  0.40791547  0.00675269     1.01600
O142        O  0.97311965  0.34454666  0.46324362    -0.86300
O143        O  0.92025851  0.35003590  0.47194707    -0.83400
C144        C  0.91216969  0.34620282  0.44139557     0.97200
O145        O  0.91645628  0.36250921  0.41775699    -0.83400
O146        O  0.93938667  0.40480498  0.38169182    -0.86000
C147        C  0.96228008  0.39818830  0.37326967     1.01600
O148        O  0.97574087  0.38688809  0.39542164    -0.78800
O149        O  0.00247596  0.37399806  0.45161523    -0.79000
C150        C  0.99589307  0.35076276  0.45430128     1.01600
Cr151      Cr  0.95083327  0.36980882  0.48815105     1.93700
Cr152      Cr  0.92197874  0.39915569  0.42981878     1.93200
Cr153      Cr  0.98133236  0.40445774  0.43938591     1.39100
O154        O  0.95124827  0.39198124  0.45328081    -1.24100
O155        O  0.95356773  0.58954177  0.23051030    -0.86300
O156        O  0.90880651  0.61367593  0.24848667    -0.83400
C157        C  0.89072772  0.59716341  0.24948830     0.97100
O158        O  0.89047825  0.57995085  0.27329045    -0.83400
O159        O  0.91209290  0.54829065  0.32883902    -0.86000
C160        C  0.92775189  0.53094920  0.31945291     1.01700
O161        O  0.94549942  0.53681011  0.29786672    -0.78800
O162        O  0.98248807  0.56894224  0.26146000    -0.79000
C163        C  0.97518288  0.57861613  0.23277482     1.01600
O164        O  0.98288305  0.62083353  0.27776632    -0.86300
O165        O  0.93704539  0.64125845  0.30069048    -0.83400
C166        C  0.91436579  0.64302818  0.31240909     0.97200
O167        O  0.90028669  0.62331170  0.31606245    -0.83400
O168        O  0.92662938  0.59354903  0.36551579    -0.86000
C169        C  0.94491721  0.57968365  0.37737855     1.01600
O170        O  0.95662064  0.56416801  0.35811236    -0.78800
O171        O  0.98946465  0.59695013  0.32369424    -0.79000
C172        C  0.99671339  0.61498696  0.30393604     1.01600
Cr173      Cr  0.94514006  0.61420155  0.26696306     1.93700
Cr174      Cr  0.90963987  0.58624816  0.31903854     1.93200
Cr175      Cr  0.96625392  0.56819727  0.30882041     1.39100
O176        O  0.94026027  0.58929697  0.29797657    -1.24100
O177        O  0.53418642  0.58462398  0.27558848    -0.86300
O178        O  0.57903173  0.61305038  0.26593611    -0.83400
C179        C  0.59889408  0.59951184  0.26020431     0.97100
O180        O  0.60038332  0.58585006  0.23278541    -0.83400
O181        O  0.58010072  0.55842516  0.17269090    -0.86000
C182        C  0.56529481  0.53932749  0.17924092     1.01700
O183        O  0.54688924  0.54230864  0.20086886    -0.78800
O184        O  0.50616576  0.56851331  0.23899715    -0.79000
C185        C  0.51205804  0.57513451  0.26971317     1.01600
O186        O  0.50594374  0.62043964  0.23401369    -0.86300
O187        O  0.55033601  0.64589922  0.22000751    -0.83400
C188        C  0.57211163  0.65072553  0.20697938     0.97200
O189        O  0.58762455  0.63290733  0.19924861    -0.83400
O190        O  0.56347564  0.60716378  0.14456065    -0.86000
C191        C  0.54684939  0.59315450  0.12921838     1.01600
O192        O  0.53669150  0.57443061  0.14465993    -0.78800
O193        O  0.50245273  0.60304460  0.18247796    -0.79000
C194        C  0.49449121  0.61877022  0.20502484     1.01600
Cr195      Cr  0.54311450  0.61423726  0.24620615     1.93700
Cr196      Cr  0.58064328  0.59565505  0.18913230     1.93200
Cr197      Cr  0.52514984  0.57337807  0.19363130     1.39100
O198        O  0.54989781  0.59412004  0.21015077    -1.24100
O199        O  0.53125715  0.39137404  0.47631282    -0.86300
O200        O  0.58388206  0.39321701  0.48473030    -0.83400
C201        C  0.60568649  0.39861474  0.49814970     0.97100
O202        O  0.60785653  0.40277553  0.03192570    -0.83400
O203        O  0.58083376  0.44698066  0.05943410    -0.86000
C204        C  0.56142308  0.46005628  0.06927257     1.01700
O205        O  0.53875600  0.45169929  0.06254980    -0.78800
O206        O  0.52544685  0.43155276  0.99501350    -0.79000
C207        C  0.52269300  0.41359267  0.47039411     1.01600
O208        O  0.52646737  0.35712184  0.03451069    -0.86300
O209        O  0.58044858  0.35499418  0.03614307    -0.83400
C210        C  0.58618430  0.35389469  0.06789979     0.97200
O211        O  0.58314365  0.37309164  0.08732777    -0.83400
O212        O  0.55749044  0.41704652  0.11115445    -0.86000
C213        C  0.53307685  0.41425933  0.11441381     1.01600
O214        O  0.51982691  0.40487394  0.09024259    -0.78800
O215        O  0.50037164  0.38974166  0.02884724    -0.79000
C216        C  0.50363662  0.36609280  0.03425696     1.01600
Cr217      Cr  0.55542490  0.37658245  0.01074586     1.93700
Cr218      Cr  0.58039960  0.40918242  0.06975021     1.93200
Cr219      Cr  0.52384478  0.41861427  0.04363099     1.39100
O220        O  0.55378135  0.40209672  0.04085387    -1.24100
O221        O  0.81547080  0.23033187  0.38413290    -0.86300
O222        O  0.78820128  0.19015775  0.42141402    -0.83400
C223        C  0.78424508  0.17349774  0.44503738     0.97100
O224        O  0.80327989  0.16088237  0.45702555    -0.83400
O225        O  0.83660575  0.14207292  0.40401000    -0.86000
C226        C  0.85255458  0.14379732  0.37886556     1.01700
O227        O  0.86890663  0.16184757  0.37780601    -0.78800
O228        O  0.83832373  0.20182406  0.35786156    -0.79000
C229        C  0.82801204  0.22351836  0.35763724     1.01600
O230        O  0.84191884  0.24163167  0.44605458    -0.86300
O231        O  0.81304587  0.20675964  0.48179463    -0.83400
C232        C  0.83065064  0.19902025  0.00098407     0.97200
O233        O  0.84815053  0.18351532  0.99085741    -0.83400
O234        O  0.88063505  0.15770123  0.44597675    -0.86000
C235        C  0.89929044  0.17328425  0.44093180     1.01600
O236        O  0.89487191  0.19449713  0.42646401    -0.78800
O237        O  0.86807597  0.23518844  0.40209530    -0.79000
C238        C  0.86028251  0.24898705  0.42677043     1.01600
Cr239      Cr  0.81640440  0.21504052  0.43223693     1.93700
Cr240      Cr  0.84173610  0.16262280  0.44827083     1.93200
Cr241      Cr  0.86560846  0.19788350  0.39328263     1.39100
O242        O  0.84139147  0.19198564  0.42487069    -1.24100
O243        O  0.68871574  0.24110913  0.11879007    -0.86300
O244        O  0.71007712  0.19852792  0.07981050    -0.83400
C245        C  0.71062589  0.18046917  0.05764945     0.97100
O246        O  0.68995787  0.16799633  0.05125286    -0.83400
O247        O  0.66132668  0.15138351  0.11146156    -0.86000
C248        C  0.64829785  0.15424270  0.13933506     1.01700
O249        O  0.63537701  0.17448520  0.14440979    -0.78800
O250        O  0.66742014  0.21631911  0.15453406    -0.79000
C251        C  0.67986814  0.23675268  0.14884923     1.01600
O252        O  0.65520333  0.25063211  0.06265980    -0.86300
O253        O  0.67871341  0.21310704  0.02388350    -0.83400
C254        C  0.65597104  0.20895496  0.50948038     0.97200
O255        O  0.64337036  0.18953689  0.02303715    -0.83400
O256        O  0.61506814  0.16776373  0.07686901    -0.86000
C257        C  0.59828196  0.18466202  0.08314505     1.01600
O258        O  0.60456183  0.20534251  0.09766811    -0.78800
O259        O  0.63419202  0.24679392  0.11222062    -0.79000
C260        C  0.63963434  0.25926767  0.08506882     1.01600
Cr261      Cr  0.68148341  0.22371478  0.07311089     1.93700
Cr262      Cr  0.65302596  0.17141148  0.06763316     1.93200
Cr263      Cr  0.63713826  0.20988050  0.12442105     1.39100
O264        O  0.65736538  0.20160627  0.08873055    -1.24100
O265        O  0.02858312  0.11484593  0.00507697    -0.86300
O266        O  0.08069101  0.11175920  0.00189246    -0.83400
C267        C  0.10337128  0.10741503  0.99137600     0.97100
O268        O  0.10887638  0.10434150  0.46023520    -0.83400
O269        O  0.08782544  0.05752699  0.43158953    -0.86000
C270        C  0.06992423  0.04160243  0.42375617     1.01700
O271        O  0.04620287  0.04750389  0.42778069    -0.78800
O272        O  0.02561936  0.06774307  0.49173225    -0.79000
C273        C  0.01964869  0.09308463  0.01187473     1.01600
O274        O  0.02505879  0.14184689  0.45351685    -0.86300
O275        O  0.07966177  0.14642036  0.45458157    -0.83400
C276        C  0.08064774  0.14999945  0.42231545     0.97200
O277        O  0.07943373  0.13081749  0.40239132    -0.83400
O278        O  0.06266869  0.08211840  0.37700891    -0.86000
C279        C  0.03818353  0.08168026  0.37269781     1.01600
O280        O  0.02426201  0.09205323  0.39489606    -0.78800
O281        O  0.00146578  0.10670697  0.45290439    -0.79000
C282        C  0.00299322  0.13084160  0.45133684     1.01600
Cr283      Cr  0.05460508  0.12374394  0.47821774     1.93700
Cr284      Cr  0.08290021  0.09460300  0.42015549     1.93200
Cr285      Cr  0.02691408  0.07944757  0.44234104     1.39100
O286        O  0.05520710  0.09836909  0.44776219    -1.24100
O287        O  0.01791316  0.89000094  0.24520566    -0.86300
O288        O  0.07057476  0.89007553  0.24329185    -0.83400
C289        C  0.09407361  0.89197522  0.25255950     0.97100
O290        O  0.10012320  0.89370568  0.28502547    -0.83400
O291        O  0.07990299  0.93849428  0.31992682    -0.86000
C292        C  0.06269047  0.95308301  0.33265037     1.01700
O293        O  0.03901084  0.94619108  0.33166565    -0.78800
O294        O  0.01556272  0.92891718  0.26626981    -0.79000
C295        C  0.00892986  0.91229258  0.24359962     1.01600
O296        O  0.01747080  0.85293483  0.29961591    -0.86300
O297        O  0.07148251  0.84903989  0.29020657    -0.83400
C298        C  0.08127370  0.84561534  0.31983799     0.97200
O299        O  0.07946830  0.86311851  0.34248701    -0.83400
O300        O  0.05978349  0.90879844  0.37520997    -0.86000
C301        C  0.03567013  0.90741164  0.38250718     1.01600
O302        O  0.02009417  0.89900412  0.36032245    -0.78800
O303        O  0.99401679  0.88762318  0.30343662    -0.79000
C304        C  0.99566306  0.86352813  0.30474033     1.01600
Cr305      Cr  0.04469463  0.87245327  0.27239165     1.93700
Cr306      Cr  0.07752645  0.90044599  0.32856799     1.93200
Cr307      Cr  0.01978318  0.91458029  0.31445449     1.39100
O308        O  0.04777358  0.89648940  0.30453689    -1.24100
O309        O  0.18336846  0.26919513  0.37183703    -0.86300
O310        O  0.19966543  0.28902780  0.43934963    -0.83400
C311        C  0.20656537  0.31210597  0.44504342     0.97100
O312        O  0.19239983  0.33055218  0.43450039    -0.83400
O313        O  0.14906939  0.35353316  0.39871422    -0.86000
C314        C  0.15039670  0.35014368  0.36570353     1.01700
O315        O  0.14921573  0.32773996  0.35345956    -0.78800
O316        O  0.14519250  0.27562108  0.34867294    -0.79000
C317        C  0.16703844  0.26523326  0.34745729     1.01600
O318        O  0.13916314  0.24815727  0.40476177    -0.86300
O319        O  0.15296382  0.26907094  0.46611721    -0.83400
C320        C  0.15503375  0.28454610  0.98734640     0.97200
O321        O  0.15968041  0.30798841  0.98192992    -0.83400
O322        O  0.11573917  0.32580788  0.45081208    -0.86000
C323        C  0.09821344  0.32626036  0.42787285     1.01600
O324        O  0.10515777  0.32748444  0.39670595    -0.78800
O325        O  0.10586245  0.27405642  0.39763794    -0.79000
C326        C  0.11496939  0.25169606  0.40152755     1.01600
Cr327      Cr  0.16792197  0.27156999  0.41967987     1.93700
Cr328      Cr  0.15374750  0.32787107  0.43937551     1.93200
Cr329      Cr  0.12819786  0.30139643  0.37675596     1.39100
O330        O  0.15080878  0.30043035  0.41162003    -1.24100
O331        O  0.31732708  0.26580066  0.11534178    -0.86300
O332        O  0.29167314  0.30512217  0.07590698    -0.83400
C333        C  0.28829019  0.32181484  0.05226620     0.97100
O334        O  0.30764737  0.33548866  0.04318213    -0.83400
O335        O  0.33836123  0.35595941  0.10002901    -0.86000
C336        C  0.35295811  0.35507187  0.12690551     1.01700
O337        O  0.36759900  0.33597052  0.13232390    -0.78800
O338        O  0.33884774  0.29259597  0.14819561    -0.79000
C339        C  0.32679297  0.27166393  0.14458994     1.01600
O340        O  0.34848817  0.25611952  0.05796917    -0.86300
O341        O  0.32101489  0.29024311  0.01828930    -0.83400
C342        C  0.33807355  0.30459461  0.49807319     0.97200
O343        O  0.35405028  0.31665795  0.01253129    -0.83400
O344        O  0.38446339  0.34122201  0.06297108    -0.86000
C345        C  0.40278671  0.32585050  0.07011699     1.01600
O346        O  0.39807174  0.30511687  0.08568138    -0.78800
O347        O  0.37160350  0.26236081  0.10540585    -0.79000
C348        C  0.36565017  0.24874633  0.07933799     1.01600
Cr349      Cr  0.32130855  0.28162491  0.06835629     1.93700
Cr350      Cr  0.34588785  0.33512337  0.05697256     1.93200
Cr351      Cr  0.36708659  0.29968008  0.11509537     1.39100
O352        O  0.34472923  0.30549694  0.08035915    -1.24100
O353        O  0.01689521  0.56438605  0.01159818    -0.86300
O354        O  0.06022663  0.54541070  0.05339594    -0.83400
C355        C  0.07857376  0.54643780  0.07582759     0.97100
O356        O  0.08809358  0.56806259  0.08455560    -0.83400
O357        O  0.10572006  0.59756698  0.02737784    -0.86000
C358        C  0.10306436  0.60865820  0.99805349     1.01700
O359        O  0.07880382  0.61586252  0.48976486    -0.78800
O360        O  0.03880118  0.58176085  0.48140817    -0.79000
C361        C  0.01784717  0.56997837  0.48656232     1.01600
O362        O  0.00465684  0.59753371  0.06671786    -0.86300
O363        O  0.04175967  0.57494912  0.10786301    -0.83400
C364        C  0.04701961  0.59499253  0.12449017     0.97200
O365        O  0.06124376  0.61224472  0.11100288    -0.83400
O366        O  0.08294664  0.64249246  0.05880701    -0.86000
C367        C  0.06521091  0.65732434  0.04799233     1.01600
O368        O  0.04626123  0.64885077  0.03077633    -0.78800
O369        O  0.00759706  0.61589386  0.01552224    -0.79000
C370        C  0.99559897  0.61261431  0.04377497     1.01600
Cr371      Cr  0.03279390  0.57228387  0.05818438     1.93700
Cr372      Cr  0.08252676  0.60450312  0.06839372     1.93200
Cr373      Cr  0.04582567  0.61571416  0.00643736     1.39100
O374        O  0.05393115  0.59749636  0.04410612    -1.24100
O375        O  0.02495647  0.43057369  0.23048113    -0.86300
O376        O  0.06622382  0.45675703  0.19258508    -0.83400
C377        C  0.08472710  0.45930850  0.17094788     0.97100
O378        O  0.09786596  0.43986316  0.16265057    -0.83400
O379        O  0.11546434  0.41073894  0.22149636    -0.86000
C380        C  0.11302119  0.39626152  0.24808307     1.01700
O381        O  0.09432934  0.38050358  0.25030632    -0.78800
O382        O  0.04980184  0.40710856  0.26420988    -0.79000
C383        C  0.03022653  0.42128238  0.26007123     1.01600
O384        O  0.01595529  0.40050108  0.17146665    -0.86300
O385        O  0.05259753  0.42727907  0.13496932    -0.83400
C386        C  0.06344990  0.41046331  0.11676384     0.97200
O387        O  0.07971692  0.39494856  0.13028252    -0.83400
O388        O  0.10399588  0.36503638  0.18321655    -0.86000
C389        C  0.08896094  0.34612361  0.18838060     1.01600
O390        O  0.06640882  0.35021435  0.19971895    -0.78800
O391        O  0.02166025  0.37568722  0.21703367    -0.79000
C392        C  0.00803720  0.38285726  0.19140131     1.01600
Cr393      Cr  0.04224669  0.42692456  0.18409115     1.93700
Cr394      Cr  0.09682016  0.40275808  0.17636008     1.93200
Cr395      Cr  0.05872353  0.38039909  0.22988648     1.39100
O396        O  0.06585403  0.40348974  0.19701479    -1.24100
O397        O  0.95629941  0.94626715  0.00400994    -0.86300
O398        O  0.93078636  0.96078003  0.06649677    -0.83400
C399        C  0.90739180  0.96008335  0.07671682     0.97100
O400        O  0.89306614  0.94075471  0.07053953    -0.83400
O401        O  0.88147439  0.89638256  0.02838815    -0.86000
C402        C  0.88597118  0.89720147  0.99546905     1.01700
O403        O  0.90986163  0.90137861  0.48543201    -0.78800
O404        O  0.96370620  0.90675688  0.48636954    -0.79000
C405        C  0.97009093  0.93003912  0.48901122     1.01600
O406        O  0.98673493  0.91015944  0.04493648    -0.86300
O407        O  0.96093943  0.92591591  0.10150208    -0.83400
C408        C  0.94488439  0.91980666  0.12438558     0.97200
O409        O  0.92253417  0.91090851  0.11697020    -0.83400
O410        O  0.91093172  0.86670586  0.08052190    -0.86000
C411        C  0.91046104  0.85043590  0.05638368     1.01600
O412        O  0.91650883  0.85746331  0.02627479    -0.78800
O413        O  0.96886392  0.87186507  0.03646268    -0.79000
C414        C  0.98836938  0.88577968  0.04430518     1.01600
Cr415      Cr  0.95618566  0.93360554  0.05285960     1.93700
Cr416      Cr  0.90436985  0.90410474  0.07143237     1.93200
Cr417      Cr  0.93867453  0.88650779  0.01096203     1.39100
O418        O  0.93279020  0.90856826  0.04542274    -1.24100
O419        O  0.96516139  0.05054746  0.24008588    -0.86300
O420        O  0.94068263  0.04412879  0.17340903    -0.83400
C421        C  0.91603650  0.04311276  0.17129900     0.97100
O422        O  0.90250148  0.06029094  0.18570544    -0.83400
O423        O  0.89268149  0.10458004  0.22746701    -0.86000
C424        C  0.89789607  0.10254310  0.26005180     1.01700
O425        O  0.92103090  0.09901590  0.27012341    -0.78800
O426        O  0.97316985  0.08664945  0.26758401    -0.79000
C427        C  0.97527293  0.06251738  0.26526089     1.01600
O428        O  0.99812696  0.08981569  0.21008294    -0.86300
O429        O  0.97172655  0.08503746  0.15062259    -0.83400
C430        C  0.95417881  0.08799738  0.12843862     0.97200
O431        O  0.93057491  0.09073576  0.13685713    -0.83400
O432        O  0.92224963  0.13354125  0.17488611    -0.86000
C433        C  0.92605298  0.15043855  0.19757237     1.01600
O434        O  0.93069138  0.14350670  0.22848445    -0.78800
O435        O  0.98085192  0.12759490  0.21868150    -0.79000
C436        C  0.00025678  0.11407638  0.21116354     1.01600
Cr437      Cr  0.96665456  0.06894038  0.19506518     1.93700
Cr438      Cr  0.91408389  0.09694346  0.18362360     1.93200
Cr439      Cr  0.95076295  0.11243599  0.24350242     1.39100
O440        O  0.94333024  0.09222087  0.20764923    -1.24100
O441        O  0.84214501  0.70885800  0.14599576    -0.86300
O442        O  0.86492901  0.66208331  0.13422406    -0.83400
C443        C  0.84800382  0.64431161  0.13297741     0.97100
O444        O  0.83216799  0.64295972  0.10737637    -0.83400
O445        O  0.80323749  0.66152591  0.04781699    -0.86000
C446        C  0.78557302  0.67754759  0.05430771     1.01700
O447        O  0.79046384  0.69585099  0.07505797    -0.78800
O448        O  0.82054554  0.73404867  0.11035421    -0.79000
C449        C  0.82953494  0.72910617  0.14027600     1.01600
O450        O  0.87541876  0.73331035  0.09775571    -0.86300
O451        O  0.89632555  0.68623035  0.08095695    -0.83400
C452        C  0.89815711  0.66329643  0.07123232     0.97200
O453        O  0.87815721  0.64940910  0.06796242    -0.83400
O454        O  0.84980218  0.67307714  0.01322580    -0.86000
C455        C  0.83507467  0.68802692  0.50233097     1.01600
O456        O  0.82099465  0.70417888  0.01603116    -0.78800
O457        O  0.85175903  0.73837963  0.05083988    -0.79000
C458        C  0.86914545  0.74650197  0.07133248     1.01600
Cr459      Cr  0.86767506  0.69692101  0.11183104     1.93700
Cr460      Cr  0.84091557  0.65928569  0.06098431     1.93200
Cr461      Cr  0.82252490  0.71577927  0.06482116     1.39100
O462        O  0.84349167  0.69069494  0.07950452    -1.24100
O463        O  0.65558205  0.71544060  0.35539198    -0.86300
O464        O  0.63054991  0.66897714  0.36295903    -0.83400
C465        C  0.64552042  0.65015674  0.36862185     0.97100
O466        O  0.65914059  0.64907025  0.39634991    -0.83400
O467        O  0.68516349  0.66990989  0.45620362    -0.86000
C468        C  0.70348188  0.68582595  0.45029250     1.01700
O469        O  0.69952576  0.70447039  0.42947805    -0.78800
O470        O  0.66981511  0.74355475  0.39267332    -0.79000
C471        C  0.66367087  0.73773292  0.36180402     1.01600
O472        O  0.61705800  0.73982878  0.39778772    -0.86300
O473        O  0.59486588  0.69350155  0.40920770    -0.83400
C474        C  0.59159743  0.67124168  0.42088239     0.97200
O475        O  0.61072972  0.65730990  0.42906108    -0.83400
O476        O  0.63931457  0.68410853  0.97994529    -0.86000
C477        C  0.65318179  0.70087801  0.99522016     1.01600
O478        O  0.66663103  0.71070004  0.48531322    -0.78800
O479        O  0.63513482  0.74331375  0.44922650    -0.79000
C480        C  0.61863835  0.75088247  0.42700580     1.01600
Cr481      Cr  0.62630754  0.70383366  0.38397474     1.93700
Cr482      Cr  0.64777431  0.66694701  0.44008207     1.93200
Cr483      Cr  0.66652085  0.72332780  0.43716680     1.39100
O484        O  0.64714122  0.69780755  0.41995822    -1.24100
O485        O  0.44117626  0.90131075  0.26948188    -0.86300
O486        O  0.39669563  0.87855800  0.24640477    -0.83400
C487        C  0.37963951  0.89605631  0.24711707     0.97100
O488        O  0.37899023  0.91330917  0.22352970    -0.83400
O489        O  0.39959552  0.94684472  0.17132953    -0.86000
C490        C  0.41369764  0.96424807  0.18465196     1.01700
O491        O  0.42998152  0.95783776  0.20795250    -0.78800
O492        O  0.46799520  0.92737863  0.24246156    -0.79000
C493        C  0.46090445  0.91556539  0.26954576     1.01600
O494        O  0.47123841  0.87476822  0.21920821    -0.86300
O495        O  0.42713469  0.85453015  0.19167186    -0.83400
C496        C  0.40417328  0.85156485  0.18152536     0.97200
O497        O  0.38937588  0.87080289  0.17923225    -0.83400
O498        O  0.41737152  0.90390877  0.13292553    -0.86000
C499        C  0.43541473  0.91949313  0.12409083     1.01600
O500        O  0.44438377  0.93552369  0.14533864    -0.78800
O501        O  0.47946890  0.90368655  0.17894598    -0.79000
C502        C  0.48581630  0.88371905  0.19574877     1.01600
Cr503      Cr  0.43355045  0.87942906  0.22930743     1.93700
Cr504      Cr  0.39838359  0.90858322  0.17844139     1.93200
Cr505      Cr  0.45338119  0.92938810  0.19459691     1.39100
O506        O  0.42855614  0.90596743  0.20114501    -1.24100
O507        O  0.48512940  0.10941894  0.50238420    -0.86300
O508        O  0.43190175  0.10422243  0.49466439    -0.83400
C509        C  0.40768000  0.10319710  0.99848485     0.97100
O510        O  0.40043869  0.10323435  0.03058092    -0.83400
O511        O  0.42103201  0.05974953  0.06978623    -0.86000
C512        C  0.43781556  0.04693503  0.08680152     1.01700
O513        O  0.46095884  0.05539804  0.08914711    -0.78800
O514        O  0.48746762  0.06837381  0.02805611    -0.79000
C515        C  0.49469470  0.08738700  0.50731598     1.01600
O516        O  0.47895458  0.14640708  0.04655738    -0.86300
O517        O  0.42671219  0.14658779  0.03421651    -0.83400
C518        C  0.41829157  0.15147708  0.06429833     0.97200
O519        O  0.41976646  0.13480947  0.08810131    -0.83400
O520        O  0.43728354  0.09093421  0.12584679    -0.86000
C521        C  0.46065904  0.09522141  0.13539361     1.01600
O522        O  0.47543195  0.10591653  0.11437809    -0.78800
O523        O  0.50519087  0.11482558  0.05940701    -0.79000
C524        C  0.50084560  0.13853623  0.05646331     1.01600
Cr525      Cr  0.45529155  0.12331384  0.02025739     1.93700
Cr526      Cr  0.42160184  0.09769776  0.07671349     1.93200
Cr527      Cr  0.48015900  0.08681462  0.07158299     1.39100
O528        O  0.45207050  0.10176331  0.05534206    -1.24100
O529        O  0.34772919  0.21359233  0.39351603    -0.86300
O530        O  0.37691982  0.17048733  0.38000024    -0.83400
C531        C  0.36261480  0.15064638  0.37926534     0.97100
O532        O  0.34623958  0.14737746  0.35445165    -0.83400
O533        O  0.31270807  0.16284080  0.29640397    -0.86000
C534        C  0.29336017  0.17708683  0.30275384     1.01700
O535        O  0.29638370  0.19549625  0.32413023    -0.78800
O536        O  0.32332610  0.23722445  0.35928824    -0.79000
C537        C  0.33372970  0.23306400  0.38869334     1.01600
O538        O  0.37675999  0.24209406  0.34430710    -0.86300
O539        O  0.40290424  0.19921785  0.32604347    -0.83400
C540        C  0.40753649  0.17739285  0.31386557     0.97200
O541        O  0.38966623  0.16074539  0.31184964    -0.83400
O542        O  0.35746149  0.18133799  0.26054138    -0.86000
C543        C  0.34177019  0.19736166  0.24717402     1.01600
O544        O  0.32419699  0.20727100  0.26504838    -0.78800
O545        O  0.35242704  0.24436289  0.29765097    -0.79000
C546        C  0.37002038  0.25367787  0.31682938     1.01600
Cr547      Cr  0.37395814  0.20539330  0.35835775     1.93700
Cr548      Cr  0.35112124  0.16538126  0.30776804     1.93200
Cr549      Cr  0.32587231  0.21907520  0.31338503     1.39100
O550        O  0.34993272  0.19646764  0.32706482    -1.24100
O551        O  0.15657108  0.19914880  0.10528900    -0.86300
O552        O  0.12973253  0.15615692  0.11967660    -0.83400
C553        C  0.14820758  0.14054093  0.11602720     0.97100
O554        O  0.16557723  0.13887416  0.13988784    -0.83400
O555        O  0.19759365  0.15630148  0.19818635    -0.86000
C556        C  0.21519697  0.17243062  0.19069082     1.01700
O557        O  0.20981627  0.19067034  0.16982810    -0.78800
O558        O  0.17758888  0.22840630  0.13410307    -0.79000
C559        C  0.16684401  0.22083363  0.10615168     1.01600
O560        O  0.12476822  0.22873700  0.15182148    -0.86300
O561        O  0.10308094  0.18268003  0.17415999    -0.83400
C562        C  0.10115051  0.15986502  0.18502515     0.97200
O563        O  0.12095698  0.14544904  0.18513329    -0.83400
O564        O  0.15228982  0.16900351  0.23566005    -0.86000
C565        C  0.16602858  0.18713402  0.24836004     1.01600
O566        O  0.18212700  0.19936728  0.23009024    -0.78800
O567        O  0.15033397  0.23471635  0.19681689    -0.79000
C568        C  0.13242638  0.24260624  0.17690753     1.01600
Cr569      Cr  0.13051315  0.19138780  0.14018211     1.93700
Cr570      Cr  0.15912058  0.15447778  0.18800744     1.93200
Cr571      Cr  0.17835329  0.21105191  0.18133107     1.39100
O572        O  0.15601586  0.18579854  0.17020151    -1.24100
O573        O  0.52000884  0.94244934  0.50696530    -0.86300
O574        O  0.55119079  0.96137430  0.45184842    -0.83400
C575        C  0.57056628  0.95994429  0.43152248     0.97100
O576        O  0.58160255  0.93877793  0.42622292    -0.83400
O577        O  0.59617007  0.90022845  0.47671513    -0.86000
C578        C  0.59949260  0.89714349  0.00538171     1.01700
O579        O  0.57695992  0.89706178  0.01887956    -0.78800
O580        O  0.52310171  0.90062992  0.02371967    -0.79000
C581        C  0.51832071  0.92353416  0.02974577     1.01600
O582        O  0.49301547  0.90959254  0.45747490    -0.86300
O583        O  0.52151061  0.93214352  0.40649075    -0.83400
C584        C  0.53117652  0.91792566  0.38390945     0.97200
O585        O  0.55008766  0.90316940  0.39051794    -0.83400
O586        O  0.56767205  0.86428632  0.42939782    -0.86000
C587        C  0.56940274  0.84880317  0.45419203     1.01600
O588        O  0.56254501  0.85610894  0.48352981    -0.78800
O589        O  0.50976425  0.87086398  0.46776495    -0.79000
C590        C  0.49069912  0.88512963  0.45856860     1.01600
Cr591      Cr  0.52362552  0.93412637  0.45664856     1.93700
Cr592      Cr  0.57199015  0.90221684  0.43377433     1.93200
Cr593      Cr  0.53936161  0.88498193  0.49532705     1.39100
O594        O  0.54530697  0.90768833  0.46173318    -1.24100
O595        O  0.52628816  0.06468903  0.27848552    -0.86300
O596        O  0.55121217  0.05643073  0.34363984    -0.83400
C597        C  0.57494002  0.04966818  0.34404823     0.97100
O598        O  0.59206024  0.06349901  0.32919842    -0.83400
O599        O  0.61147838  0.10584538  0.28763872    -0.86000
C600        C  0.60632367  0.10297089  0.25520414     1.01700
O601        O  0.58304367  0.09954401  0.24587841    -0.78800
O602        O  0.52935195  0.09930224  0.24579771    -0.79000
C603        C  0.52054864  0.07693953  0.25110183     1.01600
O604        O  0.50509460  0.11129157  0.30356976    -0.86300
O605        O  0.53139404  0.10609787  0.36318301    -0.83400
C606        C  0.54744943  0.09968048  0.38589039     0.97200
O607        O  0.57113084  0.09730850  0.37792452    -0.83400
O608        O  0.58684108  0.13953467  0.33817560    -0.86000
C609        C  0.58850687  0.15493063  0.31289159     1.01600
O610        O  0.58290301  0.14730565  0.28252714    -0.78800
O611        O  0.52998060  0.14370169  0.28832723    -0.79000
C612        C  0.50805884  0.13487013  0.29671057     1.01600
Cr613      Cr  0.53080519  0.08551848  0.32117234     1.93700
Cr614      Cr  0.58832382  0.10171439  0.33100361     1.93200
Cr615      Cr  0.55661298  0.12086567  0.26832817     1.39100
O616        O  0.55879066  0.10193046  0.30635892    -1.24100
O617        O  0.85803577  0.26799323  0.11808883    -0.86300
O618        O  0.85419265  0.32057174  0.11084799    -0.83400
C619        C  0.85368481  0.34419304  0.11792075     0.97100
O620        O  0.85340258  0.35121131  0.15001559    -0.83400
O621        O  0.81251118  0.32806824  0.19503298    -0.86000
C622        C  0.80167840  0.31018626  0.21270313     1.01700
O623        O  0.81287418  0.28869242  0.21492092    -0.78800
O624        O  0.82309196  0.26380364  0.15070338    -0.79000
C625        C  0.83590772  0.25820572  0.12369061     1.01600
O626        O  0.90240697  0.27458946  0.16233452    -0.86300
O627        O  0.90059487  0.32695867  0.14977417    -0.83400
C628        C  0.90600784  0.33642866  0.17909554     0.97200
O629        O  0.88979254  0.33538391  0.20355613    -0.83400
O630        O  0.85051580  0.31573865  0.24578033    -0.86000
C631        C  0.85857162  0.29405148  0.25637421     1.01600
O632        O  0.86488289  0.27731910  0.23461269    -0.78800
O633        O  0.87141792  0.24813825  0.17779492    -0.79000
C634        C  0.89509495  0.25260978  0.17230894     1.01600
Cr635      Cr  0.87709324  0.29779689  0.13817613     1.93700
Cr636      Cr  0.85183482  0.33045400  0.19634210     1.93200
Cr637      Cr  0.84370926  0.27192176  0.19308811     1.39100
O638        O  0.85679638  0.30032731  0.17520613    -1.24100
O639        O  0.65374919  0.30046967  0.39831444    -0.86300
O640        O  0.63207602  0.34592035  0.37982492    -0.83400
C641        C  0.65124036  0.36127642  0.38131964     0.97100
O642        O  0.66783111  0.36186007  0.35676207    -0.83400
O643        O  0.69858807  0.34138952  0.30060056    -0.86000
C644        C  0.71571589  0.32583334  0.31135625     1.01700
O645        O  0.70918305  0.30888702  0.33358932    -0.78800
O646        O  0.67587111  0.27225729  0.36943704    -0.79000
C647        C  0.66462407  0.27902763  0.39721837     1.01600
O648        O  0.62239079  0.27310955  0.34945681    -0.86300
O649        O  0.60281928  0.31988678  0.32602112    -0.83400
C650        C  0.60149684  0.34287347  0.31582798     0.97200
O651        O  0.62233707  0.35584040  0.31300702    -0.83400
O652        O  0.65279607  0.32891592  0.26345772    -0.86000
C653        C  0.66687590  0.31071928  0.25213774     1.01600
O654        O  0.68153974  0.29816647  0.27226239    -0.78800
O655        O  0.64888423  0.26575183  0.30639195    -0.79000
C656        C  0.63031107  0.25860489  0.32534789     1.01600
Cr657      Cr  0.62981664  0.31021378  0.36075299     1.93700
Cr658      Cr  0.66009842  0.34484130  0.31035044     1.93200
Cr659      Cr  0.67735432  0.28864223  0.32176368     1.39100
O660        O  0.65580792  0.31443352  0.33096644    -1.24100
O661        O  0.47984077  0.58019187  0.48845669    -0.86300
O662        O  0.44121299  0.54794256  0.45399839    -0.83400
C663        C  0.42257718  0.54265628  0.43322359     0.97100
O664        O  0.40714338  0.56022676  0.42377513    -0.83400
O665        O  0.38677465  0.59072725  0.47905722    -0.86000
C666        C  0.38763969  0.60712034  0.50360134     1.01700
O667        O  0.40770885  0.62558588  0.00144312    -0.78800
O668        O  0.45462282  0.60388329  0.01908361    -0.79000
C669        C  0.47636275  0.59325589  0.01597167     1.01600
O670        O  0.48357137  0.60820153  0.42566898    -0.86300
O671        O  0.45012879  0.57541188  0.39324942    -0.83400
C672        C  0.43871602  0.59153462  0.37433682     0.97200
O673        O  0.42098048  0.60569126  0.38668237    -0.83400
O674        O  0.39521254  0.63496157  0.43706160    -0.86000
C675        C  0.40945977  0.65461316  0.44001924     1.01600
O676        O  0.43221706  0.65247804  0.45161023    -0.78800
O677        O  0.47831002  0.63198053  0.47172223    -0.79000
C678        C  0.49082587  0.62662431  0.44466287     1.01600
Cr679      Cr  0.46147647  0.57940521  0.44201625     1.93700
Cr680      Cr  0.40484072  0.59789863  0.43343486     1.93200
Cr681      Cr  0.44152359  0.62512515  0.48494235     1.39100
O682        O  0.43582226  0.60043720  0.45405207    -1.24100
O683        O  0.48114675  0.43897996  0.26327474    -0.86300
O684        O  0.44155024  0.46271324  0.30198019    -0.83400
C685        C  0.42382967  0.46496536  0.32449754     0.97100
O686        O  0.40923678  0.44581742  0.33059102    -0.83400
O687        O  0.39101530  0.41925808  0.26810028    -0.86000
C688        C  0.39334857  0.40479307  0.24143743     1.01700
O689        O  0.41211268  0.38929219  0.23918412    -0.78800
O690        O  0.45609979  0.41680827  0.22786266    -0.79000
C691        C  0.47478031  0.43206735  0.23305137     1.01600
O692        O  0.49077200  0.40539779  0.31927597    -0.86300
O693        O  0.45309294  0.43046153  0.35727003    -0.83400
C694        C  0.44377258  0.41112293  0.37211089     0.97200
O695        O  0.42620336  0.39755243  0.35774940    -0.83400
O696        O  0.40131382  0.37244364  0.30242995    -0.86000
C697        C  0.41663049  0.35392320  0.29818709     1.01600
O698        O  0.43968450  0.35801614  0.28880983    -0.78800
O699        O  0.48515178  0.38294053  0.27156854    -0.79000
C700        C  0.49852500  0.38849989  0.29816801     1.01600
Cr701      Cr  0.46459518  0.43265134  0.30885563     1.93700
Cr702      Cr  0.40921712  0.40922553  0.31311313     1.93200
Cr703      Cr  0.44769619  0.38858587  0.25971527     1.39100
O704        O  0.44056173  0.41042682  0.29348490    -1.24100
C705        C  0.42271213  0.51917500  0.41080133    -0.07100
C706        C  0.44638018  0.51223059  0.39528687    -0.18200
C707        C  0.44731749  0.49627511  0.36557788     0.10100
C708        C  0.42391604  0.48635232  0.35080129    -0.07000
C709        C  0.40034131  0.49274750  0.36705010    -0.18300
C710        C  0.39946864  0.50894608  0.39633759     0.10100
S711        S  0.47877385  0.48829767  0.34782275    -0.33200
S712        S  0.36787931  0.51599134  0.41403069    -0.33200
H713        H  0.37678095  0.52108218  0.44808443     0.28100
H714        H  0.49383217  0.50450104  0.36926933     0.28100
H715        H  0.46422297  0.52052170  0.40540619     0.18700
H716        H  0.38230487  0.48471069  0.35708486     0.18700
C717        C  0.57538172  0.35502142  0.30986803    -0.07100
C718        C  0.55385355  0.33933288  0.30159208    -0.18200
C719        C  0.52864658  0.34948535  0.29808485     0.10100
C720        C  0.52434318  0.37606618  0.30325611    -0.07000
C721        C  0.54571320  0.39168921  0.31142750    -0.18300
C722        C  0.57086805  0.38167760  0.31446687     0.10100
S723        S  0.50267323  0.32728830  0.28844982    -0.33200
S724        S  0.59595126  0.40410632  0.32592297    -0.33200
H725        H  0.60332346  0.38955235  0.35527043     0.28100
H726        H  0.48471194  0.33978213  0.30985354     0.28100
H727        H  0.55659136  0.31888110  0.29811949     0.18700
H728        H  0.54280962  0.41205746  0.31549266     0.18700
C729        C  0.77804275  0.31437105  0.23571728    -0.07100
C730        C  0.77083148  0.33942867  0.24562489    -0.18200
C731        C  0.75226801  0.34396329  0.27215589     0.10100
C732        C  0.74016684  0.32314305  0.28996610    -0.07000
C733        C  0.74756132  0.29825068  0.28037403    -0.18300
C734        C  0.76550539  0.29359304  0.25354992     0.10100
S735        S  0.74557823  0.37690281  0.28303037    -0.33200
S736        S  0.77067510  0.26016969  0.24345876    -0.33200
H737        H  0.77222018  0.26398219  0.20723234     0.28100
H738        H  0.73887549  0.37195216  0.31794525     0.28100
H739        H  0.78041441  0.35572556  0.23356030     0.18700
H740        H  0.73799045  0.28194404  0.29248682     0.18700
C741        C  0.59867145  0.18145288  0.31741259    -0.07100
C742        C  0.61311037  0.19196504  0.28991858    -0.18200
C743        C  0.62379965  0.21667904  0.29161382     0.10100
C744        C  0.61883150  0.23232813  0.32105840    -0.07000
C745        C  0.60400725  0.22182702  0.34857288    -0.18300
C746        C  0.59427372  0.19651216  0.34735843     0.10100
S747        S  0.64386480  0.22720113  0.25571275    -0.33200
S748        S  0.57558778  0.18418641  0.38359167    -0.33200
H749        H  0.58098851  0.20441482  0.40681721     0.28100
H750        H  0.64472134  0.20386256  0.23737014     0.28100
H751        H  0.61647550  0.18042033  0.26698005     0.18700
H752        H  0.60041043  0.23333040  0.37149244     0.18700
C753        C  0.58203229  0.02680528  0.36583125    -0.07100
C754        C  0.58106770  0.00228158  0.35123754    -0.18200
C755        C  0.58099631  0.98011713  0.37249244     0.10100
C756        C  0.57845584  0.98246344  0.40939205    -0.07000
C757        C  0.58119432  0.00692482  0.42396652    -0.18300
C758        C  0.58480919  0.02874030  0.40258710     0.10100
S759        S  0.58267196  0.94915530  0.35147537    -0.33200
S760        S  0.59543239  0.05827360  0.42235586    -0.33200
H761        H  0.59280873  0.05042212  0.45729882     0.28100
H762        H  0.58756350  0.95821709  0.31753333     0.28100
H763        H  0.57967647  0.00052457  0.32316224     0.18700
H764        H  0.58106814  0.00880882  0.45207365     0.18700
C765        C  0.43444983  0.17047277  0.30498898    -0.07100
C766        C  0.45447314  0.17755417  0.32817153    -0.18200
C767        C  0.47968170  0.16808933  0.32423262     0.10100
C768        C  0.48496812  0.15120945  0.29658218    -0.07000
C769        C  0.46557794  0.14584086  0.27179313    -0.18300
C770        C  0.44031530  0.15528186  0.27567639     0.10100
S771        S  0.50348730  0.17597464  0.35720546    -0.33200
S772        S  0.41575577  0.14735427  0.24354618    -0.33200
H773        H  0.43267524  0.13657695  0.21893588     0.28100
H774        H  0.52458280  0.17749420  0.33414784     0.28100
H775        H  0.45013902  0.18935795  0.35061930     0.18700
H776        H  0.46995063  0.13306930  0.25038655     0.18700
C777        C  0.23823171  0.17368195  0.21522013    -0.07100
C778        C  0.24311468  0.19694520  0.23283396    -0.18200
C779        C  0.25846752  0.19817010  0.26349469     0.10100
C780        C  0.27087759  0.17583241  0.27690890    -0.07000
C781        C  0.26639541  0.15265531  0.25867075    -0.18300
C782        C  0.25026247  0.15130894  0.22873326     0.10100
S783        S  0.26130202  0.22906691  0.28407820    -0.33200
S784        S  0.24614078  0.12035432  0.20844582    -0.33200
H785        H  0.24081730  0.12993290  0.17482731     0.28100
H786        H  0.25422581  0.21953120  0.31710383     0.28100
H787        H  0.23346200  0.21424032  0.22395289     0.18700
H788        H  0.27607599  0.13533397  0.26738717     0.18700
C789        C  0.38280724  0.27869255  0.30861501    -0.07100
C790        C  0.40557500  0.28519657  0.32739868    -0.18200
C791        C  0.41723066  0.30939368  0.32446467     0.10100
C792        C  0.40640204  0.32761849  0.30154489    -0.07000
C793        C  0.38437185  0.32103023  0.28167762    -0.18300
C794        C  0.37247786  0.29681750  0.28466989     0.10100
S795        S  0.44480622  0.31613923  0.35232552    -0.33200
S796        S  0.34371767  0.29029057  0.25871588    -0.33200
H797        H  0.34551780  0.31189188  0.23669913     0.28100
H798        H  0.44000657  0.34249792  0.35644665     0.28100
H799        H  0.41403244  0.27159332  0.34558603     0.18700
H800        H  0.37631070  0.33515275  0.26394565     0.18700
C801        C  0.38995519  0.10892524  0.46955118    -0.07100
C802        C  0.40026781  0.10417862  0.43609011    -0.18200
C803        C  0.38960885  0.11506176  0.40557029     0.10100
C804        C  0.36756302  0.13112450  0.40739343    -0.07000
C805        C  0.35573925  0.13409733  0.44020705    -0.18300
C806        C  0.36627225  0.12288510  0.47090725     0.10100
S807        S  0.40711322  0.11037104  0.36545556    -0.33200
S808        S  0.34979271  0.12920871  0.51120982    -0.33200
H809        H  0.35266088  0.11021007  0.02309145     0.28100
H810        H  0.38523659  0.11276517  0.34356222     0.28100
H811        H  0.41814617  0.09339467  0.43376520     0.18700
H812        H  0.33911920  0.14669278  0.44238147     0.18700
C813        C  0.53743835  0.09023751  0.41917764    -0.07100
C814        C  0.54971203  0.09746836  0.45024750    -0.18200
C815        C  0.53814635  0.09163132  0.48219512     0.10100
C816        C  0.51384861  0.07899814  0.48248136    -0.07000
C817        C  0.50375363  0.06840102  0.45206671    -0.18300
C818        C  0.51516342  0.07397272  0.42012709     0.10100
S819        S  0.55285082  0.10264711  0.52233362    -0.33200
S820        S  0.49968329  0.06154744  0.38109622    -0.33200
H821        H  0.48167554  0.04519396  0.39763573     0.28100
H822        H  0.57513604  0.11376913  0.50729177     0.28100
H823        H  0.56736627  0.10887573  0.44934123     0.18700
H824        H  0.48507326  0.05868692  0.45290224     0.18700
C825        C  0.47312446  0.08268152  0.16597406    -0.07100
C826        C  0.46117404  0.08258135  0.19869245    -0.18200
C827        C  0.47530678  0.07505837  0.22858592     0.10100
C828        C  0.50161695  0.06762294  0.22541111    -0.07000
C829        C  0.51177529  0.06354928  0.19241970    -0.18300
C830        C  0.49816797  0.07119831  0.16268981     0.10100
S831        S  0.46064638  0.07715065  0.27110346    -0.33200
S832        S  0.51441896  0.06716904  0.12130999    -0.33200
H833        H  0.53250072  0.04866814  0.13256689     0.28100
H834        H  0.43639776  0.08646467  0.25971616     0.28100
H835        H  0.44163087  0.08996935  0.20109528     0.18700
H836        H  0.53192488  0.05776856  0.19017329     0.18700
C837        C  0.41631683  0.98899734  0.16443731    -0.07100
C838        C  0.40094333  0.99231462  0.13393568    -0.18200
C839        C  0.40750856  0.01019063  0.10761709     0.10100
C840        C  0.43019029  0.02540847  0.11109231    -0.07000
C841        C  0.44491481  0.02260203  0.14207309    -0.18300
C842        C  0.43778243  0.00572697  0.16896741     0.10100
S843        S  0.38704685  0.01138254  0.06940412    -0.33200
S844        S  0.45697901  0.00690548  0.20842344    -0.33200
H845        H  0.43549024  0.00335348  0.23055841     0.28100
H846        H  0.40767561  0.01513730  0.04593975     0.28100
H847        H  0.38432335  0.97986694  0.12945743     0.18700
H848        H  0.46201735  0.03426689  0.14612826     0.18700
C849        C  0.51762279  0.91786918  0.35040121    -0.07100
C850        C  0.50860775  0.89420681  0.33814785    -0.18200
C851        C  0.48850665  0.89303171  0.31373326     0.10100
C852        C  0.47819912  0.91602420  0.29976165    -0.07000
C853        C  0.48824023  0.93967306  0.31049058    -0.18300
C854        C  0.50730414  0.94094332  0.33641312     0.10100
S855        S  0.47720146  0.86162108  0.30106629    -0.33200
S856        S  0.51754804  0.97217017  0.35202429    -0.33200
H857        H  0.49863140  0.98673529  0.33432306     0.28100
H858        H  0.45164453  0.86614362  0.31238323     0.28100
H859        H  0.51577376  0.87654863  0.34967972     0.18700
H860        H  0.48083456  0.95713951  0.29875875     0.18700
C861        C  0.49829077  0.92728906  0.05712248    -0.07100
C862        C  0.49442896  0.90556623  0.07867989    -0.18200
C863        C  0.47030976  0.89961665  0.09252688     0.10100
C864        C  0.45049542  0.91791809  0.09198946    -0.07000
C865        C  0.45462710  0.94089966  0.07305637    -0.18300
C866        C  0.47795901  0.94543279  0.05477474     0.10100
S867        S  0.46627236  0.86860481  0.11242461    -0.33200
S868        S  0.48035317  0.97419319  0.02889954    -0.33200
H869        H  0.50660309  0.97873294  0.03747432     0.28100
H870        H  0.43988451  0.86718488  0.10311151     0.28100
H871        H  0.50956280  0.89124960  0.08144185     0.18700
H872        H  0.44009209  0.95589387  0.07396798     0.18700
C873        C  0.51515044  0.64084003  0.43651640    -0.07100
C874        C  0.52995468  0.63277802  0.40786257    -0.18200
C875        C  0.55427376  0.64356661  0.40096214     0.10100
C876        C  0.56511326  0.66134858  0.42460321    -0.07000
C877        C  0.55013512  0.67043456  0.45211328    -0.18300
C878        C  0.52496879  0.66117855  0.45759002     0.10100
S879        S  0.56975332  0.63490269  0.36073381    -0.33200
S880        S  0.51466096  0.67253415  0.99730722    -0.33200
H881        H  0.53127156  0.69354542  0.00391648     0.28100
H882        H  0.58056687  0.65931627  0.35459159     0.28100
H883        H  0.52251316  0.61813701  0.39038269     0.18700
H884        H  0.56462603  0.68417263  0.96884021     0.18700
C885        C  0.60252047  0.77395589  0.43463461    -0.07100
C886        C  0.60483391  0.78517816  0.46776592    -0.18200
C887        C  0.59344681  0.80878569  0.47540315     0.10100
C888        C  0.57984190  0.82247156  0.44899365    -0.07000
C889        C  0.57622595  0.81063043  0.41649242    -0.18300
C890        C  0.58643715  0.78628233  0.40949475     0.10100
S891        S  0.59822169  0.82043361  0.51909365    -0.33200
S892        S  0.57735824  0.77207455  0.36843327    -0.33200
H893        H  0.57028638  0.74838509  0.38353636     0.28100
H894        H  0.60494345  0.84492644  0.50744561     0.28100
H895        H  0.61624166  0.77583159  0.48793501     0.18700
H896        H  0.56481111  0.82019891  0.39651884     0.18700
C897        C  0.76308128  0.67865909  0.02927813    -0.07100
C898        C  0.75466276  0.70294151  0.01779940    -0.18200
C899        C  0.73664310  0.70764528  0.49098634     0.10100
C900        C  0.72633486  0.68515313  0.47498075    -0.07000
C901        C  0.73313243  0.66129659  0.48986997    -0.18300
C902        C  0.75462956  0.65685730  0.01009505     0.10100
S903        S  0.72830281  0.73966532  0.47712904    -0.33200
S904        S  0.76303097  0.62448607  0.02240961    -0.33200
H905        H  0.76457045  0.62954669  0.05838923     0.28100
H906        H  0.73432533  0.73544743  0.44197073     0.28100
H907        H  0.76140305  0.72001331  0.03126251     0.18700
H908        H  0.72472479  0.64383927  0.47927599     0.18700
C909        C  0.92415198  0.17833544  0.18838749    -0.07100
C910        C  0.92690192  0.19679324  0.21494351    -0.18200
C911        C  0.92203135  0.22285847  0.20851522     0.10100
C912        C  0.91282722  0.23070232  0.17555031    -0.07000
C913        C  0.91251275  0.21296967  0.14826375    -0.18300
C914        C  0.91893670  0.18723330  0.15398578     0.10100
S915        S  0.92709219  0.24520198  0.24356631    -0.33200
S916        S  0.92045207  0.16711987  0.11612843    -0.33200
H917        H  0.94481742  0.15773587  0.12654779     0.28100
H918        H  0.92803652  0.26739512  0.22263671     0.28100
H919        H  0.93231658  0.19092529  0.24110875     0.18700
H920        H  0.90594605  0.21895604  0.12259180     0.18700
C921        C  0.07524065  0.14913508  0.19415820    -0.07100
C922        C  0.05346954  0.15730815  0.17487141    -0.18200
C923        C  0.02896017  0.14601410  0.17953415     0.10100
C924        C  0.02572864  0.12645170  0.20476447    -0.07000
C925        C  0.04724423  0.11875520  0.22479835    -0.18300
C926        C  0.07195253  0.12979702  0.21979389     0.10100
S927        S  0.00296651  0.15665291  0.15128961    -0.33200
S928        S  0.09872130  0.11983368  0.24737092    -0.33200
H929        H  0.08507537  0.10105222  0.26646495     0.28100
H930        H  0.99037616  0.13274936  0.14902854     0.28100
H931        H  0.05576375  0.17187978  0.15486443     0.18700
H932        H  0.04451527  0.10436110  0.24484337     0.18700
C933        C  0.90116411  0.82352026  0.06134129    -0.07100
C934        C  0.88862553  0.81172341  0.03283713    -0.18200
C935        C  0.87857804  0.78669158  0.03475252     0.10100
C936        C  0.88112188  0.77249951  0.06617531    -0.07000
C937        C  0.89407778  0.78421387  0.09460626     0.04100
C938        C  0.90410213  0.80932847  0.09253652     0.10100
S939        S  0.86208849  0.77299601  0.49666010    -0.33200
S940        S  0.92075067  0.82184504  0.13035737    -0.33200
H941        H  0.94056145  0.83416116  0.11133280     0.28100
H942        H  0.86969759  0.79313494  0.97290544     0.28100
H943        H  0.88606025  0.82252984  0.00890808     0.18700
H944        H  0.89621773  0.77387001  0.11899737     0.18700
C945        C  0.89843935  0.98141312  0.09999559    -0.07100
C946        C  0.90010119  0.00676949  0.08805279    -0.18200
C947        C  0.90085434  0.02754068  0.11144303     0.10100
C948        C  0.90392329  0.02316894  0.14789201    -0.07000
C949        C  0.90016780  0.99802781  0.15999639    -0.18300
C950        C  0.89559699  0.97757936  0.13660809     0.10100
S951        S  0.89774546  0.05899265  0.09267211    -0.33200
S952        S  0.88783971  0.94688938  0.15549656    -0.33200
H953        H  0.87084420  0.93954873  0.12844755     0.28100
H954        H  0.88503142  0.06936899  0.12175576     0.28100
H955        H  0.90127731  0.01043362  0.06026948     0.18700
H956        H  0.90127173  0.99417183  0.18774687     0.18700
C957        C  0.12119327  0.26888879  0.18127453    -0.07100
C958        C  0.09423662  0.27263265  0.17717086    -0.18200
C959        C  0.08308777  0.29734343  0.17834470     0.10100
C960        C  0.09910545  0.31927205  0.18384146    -0.07000
C961        C  0.12612616  0.31540990  0.18683202    -0.18300
C962        C  0.13717489  0.29082467  0.18583840     0.10100
S963        S  0.04852723  0.29952616  0.17097490    -0.33200
S964        S  0.17210092  0.28889114  0.18788793    -0.33200
H965        H  0.17212312  0.27477067  0.21919865     0.28100
H966        H  0.05011970  0.32174963  0.15012995     0.28100
H967        H  0.08173968  0.25615598  0.17256076     0.18700
H968        H  0.13894789  0.33173855  0.19048579     0.18700
C969        C  0.93140042  0.34929955  0.18356154    -0.07100
C970        C  0.94179418  0.36269769  0.15491705    -0.18200
C971        C  0.96682375  0.37329693  0.15597866     0.10100
C972        C  0.98192295  0.37098785  0.18680553    -0.07000
C973        C  0.97133818  0.35751410  0.21542692    -0.18300
C974        C  0.94645383  0.34675128  0.21415770     0.10100
S975        S  0.97839272  0.38839551  0.11659519    -0.33200
S976        S  0.93582446  0.32841395  0.25140963    -0.33200
H977        H  0.91517470  0.34516423  0.25864357     0.28100
H978        H  0.00261403  0.37595723  0.11762966     0.28100
H979        H  0.93047659  0.36448146  0.13109792     0.18700
H980        H  0.98241836  0.35541132  0.23937298     0.18700
C981        C  0.08729245  0.48250759  0.14786637    -0.07100
C982        C  0.08946526  0.47839982  0.11147993    -0.18200
C983        C  0.08744915  0.49856100  0.08702260     0.10100
C984        C  0.08473893  0.52394463  0.09886337    -0.07000
C985        C  0.08558397  0.52827453  0.13524910    -0.18300
C986        C  0.08601040  0.50800466  0.15966705     0.10100
S987        S  0.08878376  0.49070076  0.04130974    -0.33200
S988        S  0.08527074  0.51595816  0.20533052    -0.33200
H989        H  0.09896125  0.49421238  0.21690532     0.28100
H990        H  0.09924299  0.51439408  0.03043473     0.28100
H991        H  0.09182092  0.45906422  0.10179038     0.18700
H992        H  0.08520121  0.54767474  0.14475384     0.18700
C993        C  0.92375294  0.65189360  0.06532922    -0.07100
C994        C  0.93593523  0.65593994  0.03333993    -0.18200
C995        C  0.95942863  0.64386402  0.02551665     0.10100
C996        C  0.97071523  0.62639021  0.04991268    -0.07000
C997        C  0.95809653  0.62246412  0.08194285    -0.18300
C998        C  0.93525051  0.63541651  0.09012549     0.10100
S999        S  0.97239438  0.65354831  0.49284435    -0.33200
S1000       S  0.92202976  0.63064509  0.13303121    -0.33200
H1001       H  0.91551050  0.65659325  0.13761170     0.28100
H1002       H  0.99553365  0.66139955  0.50953200     0.28100
H1003       H  0.92498513  0.66808400  0.52239887     0.18700
H1004       H  0.96632110  0.60961049  0.10129113     0.18700
C1005       C  0.35482283  0.37657725  0.15250619    -0.07100
C1006       C  0.34317278  0.37337711  0.18539839    -0.18200
C1007       C  0.35243675  0.38677423  0.21506011     0.10100
C1008       C  0.37421627  0.40326061  0.21218948    -0.07000
C1009       C  0.38376827  0.40863532  0.17860765    -0.18300
C1010       C  0.37429766  0.39567489  0.14895671     0.10100
S1011       S  0.33878219  0.38014608  0.25741782    -0.33200
S1012       S  0.39061146  0.40154204  0.10817267    -0.33200
H1013       H  0.36939049  0.39463276  0.08687635     0.28100
H1014       H  0.31884117  0.36361848  0.24579862     0.28100
H1015       H  0.32845489  0.35861227  0.18848086     0.18700
H1016       H  0.40077534  0.42086773  0.17593997     0.18700
C1017       C  0.33917862  0.29504676  0.46198137    -0.07100
C1018       C  0.31502167  0.28910805  0.44628438    -0.18200
C1019       C  0.31231579  0.26855941  0.42312021     0.10100
C1020       C  0.33435350  0.25394665  0.41457570    -0.07000
C1021       C  0.35894634  0.26195221  0.42693784    -0.18300
C1022       C  0.36161603  0.28269061  0.44984429     0.10100
S1023       S  0.27999124  0.26065940  0.40798001    -0.33200
S1024       S  0.39374919  0.29105689  0.46505476    -0.33200
H1025       H  0.38890333  0.31493199  0.96719716     0.28100
H1026       H  0.28405107  0.23401309  0.40606420     0.28100
H1027       H  0.29759700  0.29867506  0.45522083     0.18700
H1028       H  0.37629093  0.25198246  0.41863533     0.18700
C1029       C  0.33040339  0.25074618  0.17026651    -0.07100
C1030       C  0.35519175  0.24843430  0.18567610    -0.18200
C1031       C  0.36197459  0.22689526  0.20546489     0.10100
C1032       C  0.34337267  0.20755628  0.21165364    -0.07000
C1033       C  0.31952861  0.20855373  0.19346875    -0.18300
C1034       C  0.31267028  0.23002636  0.17343180     0.10100
S1035       S  0.39373513  0.22631652  0.22544091    -0.33200
S1036       S  0.28032987  0.23055999  0.15491221    -0.33200
H1037       H  0.27734648  0.25735332  0.15692819     0.28100
H1038       H  0.39553517  0.19940990  0.22520414     0.28100
H1039       H  0.36970929  0.26331117  0.18173354     0.18700
H1040       H  0.30479041  0.19407598  0.19868605     0.18700
C1041       C  0.37872401  0.22362634  0.07505912    -0.07100
C1042       C  0.39087247  0.21239536  0.10441793    -0.18200
C1043       C  0.40411103  0.18903635  0.10209912     0.10100
C1044       C  0.40504564  0.17621629  0.06973704    -0.07000
C1045       C  0.39274529  0.18730269  0.04064568    -0.18300
C1046       C  0.37961204  0.21051338  0.04286267     0.10100
S1047       S  0.42013489  0.17734697  0.14092825    -0.33200
S1048       S  0.36511313  0.22224028  0.00316060    -0.33200
H1049       H  0.37651829  0.24657894  0.00706779     0.28100
H1050       H  0.44287546  0.16973474  0.12359462     0.28100
H1051       H  0.39030586  0.22196506  0.12945830     0.18700
H1052       H  0.39333538  0.17777867  0.01557161     0.18700
C1053       C  0.22852185  0.31633895  0.47063042    -0.07100
C1054       C  0.23075694  0.29850339  0.49820317    -0.18200
C1055       C  0.24840503  0.29922663  0.02534151     0.10100
C1056       C  0.26465579  0.32123558  0.02846056    -0.07000
C1057       C  0.26184336  0.34054401  0.00260225    -0.18300
C1058       C  0.24490833  0.33818985  0.47156749     0.10100
S1059       S  0.24789508  0.27348782  0.05686403    -0.33200
S1060       S  0.24552443  0.36132019  0.43657602    -0.33200
H1061       H  0.23910911  0.34363818  0.41017753     0.28100
H1062       H  0.24551679  0.29017761  0.08547292     0.28100
H1063       H  0.21806706  0.28182130  0.49871007     0.18700
H1064       H  0.27418757  0.35744440  0.00370787     0.18700
C1065       C  0.13179419  0.39584281  0.27761245    -0.07100
C1066       C  0.12227878  0.40315619  0.31044496    -0.18200
C1067       C  0.13129922  0.39158959  0.34143260     0.10100
C1068       C  0.14984959  0.37163185  0.33968569    -0.07000
C1069       C  0.16205192  0.36730600  0.30740946    -0.18300
C1070       C  0.15335566  0.37922933  0.27661104     0.10100
S1071       S  0.11541529  0.40023705  0.38138922    -0.33200
S1072       S  0.16770919  0.36923204  0.23615167    -0.33200
H1073       H  0.16145776  0.39175456  0.21771956     0.28100
H1074       H  0.13862363  0.40048378  0.40098723     0.28100
H1075       H  0.10571462  0.41589835  0.31167360     0.18700
H1076       H  0.17664870  0.35243446  0.30549165     0.18700
C1077       C  0.15267299  0.27373766  0.02254386    -0.07100
C1078       C  0.13809002  0.25111775  0.02490746    -0.18200
C1079       C  0.14240210  0.23340997  0.05134734     0.10100
C1080       C  0.16195585  0.23866743  0.07687443    -0.07000
C1081       C  0.17413054  0.26295073  0.07691073    -0.18300
C1082       C  0.16910297  0.28083769  0.05045468     0.10100
S1083       S  0.12249389  0.20446954  0.05066583    -0.33200
S1084       S  0.18401645  0.31207432  0.05376131    -0.33200
H1085       H  0.16154870  0.32522275  0.04282077     0.28100
H1086       H  0.10522948  0.21152905  0.02374767     0.28100
H1087       H  0.12446530  0.24645229  0.00418939     0.18700
H1088       H  0.18751396  0.26812409  0.09769075     0.18700
C1089       C  0.16899491  0.24452367  0.32108070    -0.07100
C1090       C  0.18438005  0.22275779  0.32755798    -0.18200
C1091       C  0.18122331  0.20039316  0.30735485     0.10100
C1092       C  0.16113206  0.19898185  0.28205502    -0.07000
C1093       C  0.14413355  0.21959334  0.27856606    -0.18300
C1094       C  0.14950470  0.24289961  0.29461672     0.10100
S1095       S  0.20374150  0.17441293  0.31389946    -0.33200
S1096       S  0.13162454  0.27022696  0.27803184    -0.33200
H1097       H  0.15185641  0.28800671  0.28412825     0.28100
H1098       H  0.18975617  0.15620971  0.29416995     0.28100
H1099       H  0.19876281  0.22309212  0.34830263     0.18700
H1100       H  0.12936508  0.21914814  0.25822072     0.18700
C1101       C  0.98825357  0.91626458  0.21724288    -0.07100
C1102       C  0.98555746  0.94017527  0.20112018    -0.18200
C1103       C  0.96923174  0.94297388  0.17208159     0.10100
C1104       C  0.95404891  0.92176921  0.16038742    -0.07000
C1105       C  0.95418422  0.89903765  0.17917120    -0.18300
C1106       C  0.97195515  0.89540156  0.20610871     0.10100
S1107       S  0.97049915  0.97342176  0.14961283    -0.33200
S1108       S  0.97522369  0.86263247  0.22131572    -0.33200
H1109       H  0.94985640  0.85441983  0.21273667     0.28100
H1110       H  0.94748842  0.97005912  0.13066886     0.28100
H1111       H  0.99772497  0.95613198  0.20931325     0.18700
H1112       H  0.94308423  0.88279594  0.16940070     0.18700
C1113       C  0.02357639  0.92048324  0.41250568    -0.07100
C1114       C  0.00115080  0.93506645  0.40482589    -0.18200
C1115       C  0.98475129  0.94374298  0.43100997     0.10100
C1116       C  0.99101497  0.93841123  0.46584505    -0.07000
C1117       C  0.01570439  0.92804345  0.47375604    -0.18300
C1118       C  0.03172558  0.91822292  0.44743720     0.10100
S1119       S  0.95411642  0.95778602  0.41838971    -0.33200
S1120       S  0.06026616  0.90057250  0.46031183    -0.33200
H1121       H  0.05835447  0.88191677  0.43398349     0.28100
H1122       H  0.94839280  0.96800340  0.45137275     0.28100
H1123       H  0.99524150  0.93813608  0.37795129     0.18700
H1124       H  0.02069195  0.92386078  0.50066337     0.18700
C1125       C  0.12380854  0.10716902  0.01960440    -0.07100
C1126       C  0.14378881  0.12572935  0.01951558    -0.18200
C1127       C  0.15569631  0.13408424  0.05097195     0.10100
C1128       C  0.14726134  0.12427124  0.08368343    -0.07000
C1129       C  0.12947803  0.10371337  0.08315795    -0.18300
C1130       C  0.11824837  0.09479454  0.05180730     0.10100
S1131       S  0.17980003  0.15919944  0.04797480    -0.33200
S1132       S  0.09442501  0.06931034  0.05497714    -0.33200
H1133       H  0.09651718  0.06131447  0.02007229     0.28100
H1134       H  0.19093703  0.15479703  0.08101231     0.28100
H1135       H  0.14845087  0.13554906  0.99537497     0.18700
H1136       H  0.12250115  0.09596232  0.10766754     0.18700
C1137       C  0.09852091  0.22858051  0.40015794    -0.07100
C1138       C  0.10527474  0.20969638  0.37569136    -0.18200
C1139       C  0.09762746  0.18403316  0.37992522     0.10100
C1140       C  0.08350964  0.17689654  0.40992114    -0.07000
C1141       C  0.07451222  0.19640386  0.43226669    -0.18300
C1142       C  0.08176291  0.22206642  0.42764328     0.10100
S1143       S  0.10903871  0.16117584  0.34849042    -0.33200
S1144       S  0.07004766  0.24552198  0.95258804    -0.33200
H1145       H  0.06694157  0.26595809  0.92896058     0.28100
H1146       H  0.08419117  0.15045222  0.34290951     0.28100
H1147       H  0.11819102  0.21467027  0.35442341     0.18700
H1148       H  0.06293110  0.19143987  0.45487285     0.18700
C1149       C  0.07540601  0.01778053  0.40324477    -0.07100
C1150       C  0.08155624  0.02039132  0.36745281    -0.18200
C1151       C  0.07847157  0.99984241  0.34355695     0.10100
C1152       C  0.06977354  0.97559286  0.35557730    -0.07000
C1153       C  0.06554948  0.97277153  0.39173090    -0.18300
C1154       C  0.06786326  0.99332029  0.41528864     0.10100
S1155       S  0.08452681  0.00636768  0.29811929    -0.33200
S1156       S  0.05988799  0.98737318  0.46034729    -0.33200
H1157       H  0.07482064  0.00771388  0.47407360     0.28100
H1158       H  0.06847389  0.98694066  0.28438066     0.28100
H1159       H  0.08689623  0.03913713  0.35741423     0.18700
H1160       H  0.05985575  0.95436487  0.40192726     0.18700
C1161       C  0.00035289  0.09163159  0.04011401    -0.07100
C1162       C  0.99153430  0.06753746  0.05132612    -0.18200
C1163       C  0.97343534  0.06556950  0.07827671     0.10100
C1164       C  0.96272021  0.08806454  0.09254549    -0.07000
C1165       C  0.96963820  0.11189855  0.07934591    -0.18300
C1166       C  0.98915154  0.11431648  0.05468000     0.10100
S1167       S  0.96608913  0.03448672  0.09677436    -0.33200
S1168       S  0.99424902  0.13890473  0.53823770    -0.33200
H1169       H  0.96982225  0.14997421  0.54473261     0.28100
H1170       H  0.97924883  0.01976182  0.07182022     0.28100
H1171       H  0.99985985  0.05033224  0.04033979     0.18700
H1172       H  0.96213868  0.12882580  0.09169972     0.18700
C1173       C  0.99304672  0.05031352  0.29008308    -0.07100
C1174       C  0.98392427  0.04832231  0.32405550    -0.18200
C1175       C  0.99979047  0.05548876  0.35206008     0.10100
C1176       C  0.02476344  0.06640903  0.34539792    -0.07000
C1177       C  0.03555633  0.06331604  0.31225223    -0.18300
C1178       C  0.01995740  0.05408910  0.28472793     0.10100
S1179       S  0.98713649  0.05143380  0.39573381    -0.33200
S1180       S  0.03360007  0.04915334  0.24208641    -0.33200
H1181       H  0.05947212  0.05495082  0.25139214     0.28100
H1182       H  0.96524568  0.03653772  0.38657289     0.28100
H1183       H  0.96349192  0.04429107  0.32831721     0.18700
H1184       H  0.05540443  0.06936253  0.30752918     0.18700
C1185       C  0.57096716  0.17917362  0.07486397    -0.07100
C1186       C  0.55349052  0.17568404  0.10243522    -0.18200
C1187       C  0.52910770  0.16426140  0.09655202     0.10100
C1188       C  0.52234180  0.15640587  0.06256833    -0.07000
C1189       C  0.53896826  0.16174200  0.03471017    -0.18300
C1190       C  0.56308340  0.17336846  0.04049069     0.10100
S1191       S  0.50552501  0.16420384  0.63552977    -0.33200
S1192       S  0.58332552  0.17971157  0.00326186    -0.33200
H1193       H  0.59388614  0.20250715  0.01710675     0.28100
H1194       H  0.52114245  0.17575098  0.66137978     0.28100
H1195       H  0.55867900  0.18377654  0.63205823     0.18700
H1196       H  0.53364802  0.15573255  0.00856722     0.18700
C1197       C  0.65068566  0.22084223  0.47568097    -0.07100
C1198       C  0.63755751  0.24423759  0.47735648    -0.18200
C1199       C  0.64271142  0.26415038  0.45366453     0.10100
C1200       C  0.66056921  0.26002899  0.42595322    -0.07000
C1201       C  0.67210569  0.23563863  0.42298272    -0.18300
C1202       C  0.66758611  0.21627519  0.44763565     0.10100
S1203       S  0.62698086  0.29472284  0.46097351    -0.33200
S1204       S  0.68551961  0.18673929  0.44368671    -0.33200
H1205       H  0.66966716  0.17215623  0.46612391     0.28100
H1206       H  0.61610207  0.28912185  0.49373847     0.28100
H1207       H  0.62523221  0.24781845  0.49963945     0.18700
H1208       H  0.68522198  0.23167127  0.40167421     0.18700
C1209       C  0.66666433  0.30152196  0.21595898    -0.07100
C1210       C  0.69119888  0.29845935  0.20027758    -0.18200
C1211       C  0.69644776  0.27745135  0.17858672     0.10100
C1212       C  0.67693377  0.25871866  0.17294298    -0.07000
C1213       C  0.65175603  0.26348709  0.18558711    -0.18300
C1214       C  0.64630191  0.28505161  0.20582238     0.10100
S1215       S  0.72862371  0.27501691  0.16051516    -0.33200
S1216       S  0.61358260  0.28906393  0.22138160    -0.33200
H1217       H  0.61522192  0.31599093  0.22337675     0.28100
H1218       H  0.72957404  0.24803623  0.16114534     0.28100
H1219       H  0.70713640  0.31097484  0.20796650     0.18700
H1220       H  0.63600225  0.25028445  0.17965965     0.18700
C1221       C  0.62570566  0.10854523  0.22689376    -0.07100
C1222       C  0.61943731  0.10035103  0.19279354    -0.18200
C1223       C  0.62941852  0.11279878  0.16308846     0.10100
C1224       C  0.64634589  0.13407324  0.16694497    -0.07000
C1225       C  0.65489031  0.14041478  0.20079360    -0.18300
C1226       C  0.64537207  0.12757583  0.23053870     0.10100
S1227       S  0.61649774  0.10328333  0.12128632    -0.33200
S1228       S  0.65702414  0.13853411  0.27231430    -0.33200
H1229       H  0.65953007  0.11356919  0.28603280     0.28100
H1230       H  0.63937715  0.10863662  0.10273200     0.28100
H1231       H  0.60469544  0.08563464  0.18912385     0.18700
H1232       H  0.66772975  0.15679317  0.20429045     0.18700
C1233       C  0.92663654  0.16539593  0.44842924    -0.07100
C1234       C  0.94741596  0.17755182  0.43067272    -0.18200
C1235       C  0.97285539  0.16752076  0.43156639     0.10100
C1236       C  0.97778429  0.14479989  0.45057313    -0.07000
C1237       C  0.95712046  0.13331521  0.46896406    -0.18300
C1238       C  0.93226540  0.14375917  0.46935156     0.10100
S1239       S  0.99742364  0.18324143  0.40571438    -0.33200
S1240       S  0.91442410  0.14526980  0.00446116    -0.33200
H1241       H  0.90163963  0.16906669  0.00531883     0.28100
H1242       H  0.00918628  0.16045810  0.39427597     0.28100
H1243       H  0.94361989  0.19418957  0.41443498     0.18700
H1244       H  0.96580038  0.13091731  0.99043162     0.18700
C1245       C  0.85346803  0.12567911  0.34914659    -0.07100
C1246       C  0.84772939  0.13616409  0.31615710    -0.18200
C1247       C  0.85966593  0.12716760  0.28567312     0.10100
C1248       C  0.87788203  0.10687867  0.28774080    -0.07000
C1249       C  0.88128199  0.09457145  0.32030373    -0.18300
C1250       C  0.86933267  0.10369992  0.35076686     0.10100
S1251       S  0.85440161  0.14550432  0.24641379    -0.33200
S1252       S  0.87809874  0.08895287  0.39171831    -0.33200
H1253       H  0.85525179  0.09601499  0.40915426     0.28100
H1254       H  0.84815592  0.12373440  0.22636426     0.28100
H1255       H  0.83615142  0.15348603  0.31460316     0.18700
H1256       H  0.89507101  0.07897805  0.32262064     0.18700
C1257       C  0.82832864  0.20942276  0.03705043    -0.07100
C1258       C  0.81035816  0.22967356  0.04202621    -0.18200
C1259       C  0.80975120  0.24394620  0.07265517     0.10100
C1260       C  0.82751330  0.23828159  0.09925244    -0.07000
C1261       C  0.84360475  0.21660276  0.09615802    -0.18300
C1262       C  0.84384121  0.20183832  0.06564403     0.10100
S1263       S  0.78844450  0.27129373  0.07446193    -0.33200
S1264       S  0.86467034  0.17427473  0.06465086    -0.33200
H1265       H  0.84635489  0.15859225  0.04740520     0.28100
H1266       H  0.78395382  0.26948231  0.11051045     0.28100
H1267       H  0.79695855  0.23595730  0.52245548     0.18700
H1268       H  0.85721308  0.21206969  0.11693591     0.18700
C1269       C  0.83750214  0.24381229  0.33354655    -0.07100
C1270       C  0.82341420  0.26688871  0.33065132    -0.18200
C1271       C  0.83296468  0.28765071  0.31106360     0.10100
C1272       C  0.85649640  0.28505763  0.29285248    -0.07000
C1273       C  0.87250528  0.26428487  0.30124533    -0.18300
C1274       C  0.86306799  0.24310224  0.31967156     0.10100
S1275       S  0.81471799  0.31698736  0.31057281    -0.33200
S1276       S  0.88424010  0.21551236  0.32367725    -0.33200
H1277       H  0.90770792  0.22843199  0.31652633     0.28100
H1278       H  0.83652472  0.33286936  0.30491477     0.28100
H1279       H  0.80493566  0.26883986  0.34381605     0.18700
H1280       H  0.89128285  0.26317047  0.28907398     0.18700
C1281       C  0.76100439  0.17493247  0.46812130    -0.07100
C1282       C  0.75449175  0.19933580  0.48089415    -0.18200
C1283       C  0.74228664  0.19987700  0.01410348     0.10100
C1284       C  0.73212966  0.17798206  0.03155197    -0.07000
C1285       C  0.73718705  0.15369139  0.01683020    -0.18300
C1286       C  0.75113665  0.15314992  0.48597073     0.10100
S1287       S  0.73682299  0.23220713  0.02874479    -0.33200
S1288       S  0.75790168  0.12084869  0.47198811    -0.33200
H1289       H  0.76353290  0.12725351  0.43716484     0.28100
H1290       H  0.74676293  0.22732091  0.06235704     0.28100
H1291       H  0.76238999  0.21632489  0.46834834     0.18700
H1292       H  0.72858866  0.13670041  0.02850386     0.18700
C1293       C  0.65293930  0.37754653  0.41330367    -0.07100
C1294       C  0.65523410  0.36437114  0.44522195    -0.18200
C1295       C  0.64406775  0.37387542  0.47594952     0.10100
C1296       C  0.62862130  0.39624221  0.47466965    -0.07000
C1297       C  0.62939404  0.41116981  0.44399334    -0.18300
C1298       C  0.64259322  0.40262445  0.41404858     0.10100
S1299       S  0.64695904  0.35459914  0.51473816    -0.33200
S1300       S  0.64500571  0.42411453  0.37741922    -0.33200
H1301       H  0.66576927  0.41128783  0.36150470     0.28100
H1302       H  0.64511986  0.37183011  0.03897779     0.28100
H1303       H  0.66371339  0.34535608  0.44558611     0.18700
H1304       H  0.61840613  0.42885117  0.44266531     0.18700
C1305       C  0.50274531  0.41509751  0.44298385    -0.07100
C1306       C  0.47923761  0.42727884  0.45097237    -0.18200
C1307       C  0.45670061  0.42225172  0.43154844     0.10100
C1308       C  0.45739078  0.40446046  0.40390728    -0.07000
C1309       C  0.48045161  0.39115148  0.39739493    -0.18300
C1310       C  0.50340221  0.39735113  0.41515363     0.10100
S1311       S  0.42787566  0.44041087  0.44119160    -0.33200
S1312       S  0.53372927  0.38324553  0.40122207    -0.33200
H1313       H  0.52275941  0.36464001  0.37898384     0.28100
H1314       H  0.41061651  0.42436700  0.42264546     0.28100
H1315       H  0.47814468  0.44006580  0.47315688     0.18700
H1316       H  0.48123902  0.37826752  0.37528649     0.18700
C1317       C  0.51912511  0.42476501  0.14431242    -0.07100
C1318       C  0.53221935  0.42794502  0.17605805    -0.18200
C1319       C  0.51862198  0.43520159  0.20584035     0.10100
C1320       C  0.49136303  0.43836638  0.20352205    -0.07000
C1321       C  0.47927298  0.43933066  0.17094734    -0.18300
C1322       C  0.49285128  0.43291916  0.14105712     0.10100
S1323       S  0.53600962  0.43841317  0.24665037    -0.33200
S1324       S  0.47611096  0.43573033  0.09943968    -0.33200
H1325       H  0.45131970  0.44176562  0.11231783     0.28100
H1326       H  0.56118634  0.43502567  0.23330255     0.28100
H1327       H  0.55275106  0.42359242  0.17782963     0.18700
H1328       H  0.45859849  0.44313227  0.16942819     0.18700
C1329       C  0.59783991  0.32982701  0.08043217    -0.07100
C1330       C  0.62405537  0.33002986  0.09072176    -0.18200
C1331       C  0.63881627  0.30746044  0.08997160     0.10100
C1332       C  0.62676263  0.28406071  0.08044235    -0.07000
C1333       C  0.60012776  0.28361221  0.07286787    -0.18300
C1334       C  0.58562189  0.30615955  0.07271395     0.10100
S1335       S  0.67289425  0.30983076  0.10077828    -0.33200
S1336       S  0.55001474  0.30577674  0.57045158    -0.33200
H1337       H  0.54428014  0.32467225  0.08324850     0.28100
H1338       H  0.68112686  0.29082996  0.07744391     0.28100
H1339       H  0.63364429  0.34814304  0.09634018     0.18700
H1340       H  0.59050948  0.26548615  0.06730560     0.18700
C1341       C  0.48006968  0.35004729  0.04019030    -0.07100
C1342       C  0.47637436  0.33810282  0.07264574    -0.18200
C1343       C  0.45158438  0.32936898  0.08292004     0.10100
C1344       C  0.42991904  0.33257556  0.06024456    -0.07000
C1345       C  0.43411907  0.34292028  0.02700894    -0.18300
C1346       C  0.45887312  0.35130371  0.01671344     0.10100
S1347       S  0.44857628  0.31628844  0.12626678    -0.33200
S1348       S  0.46536297  0.36076028  0.47132287    -0.33200
H1349       H  0.43932221  0.35991960  0.45990155     0.28100
H1350       H  0.42515547  0.32892847  0.13376458     0.28100
H1351       H  0.49241112  0.33724698  0.09106106     0.18700
H1352       H  0.41861043  0.34491395  0.50738499     0.18700
C1353       C  0.62078032  0.60266983  0.28551207    -0.07100
C1354       C  0.61686625  0.59444326  0.32008740    -0.18200
C1355       C  0.62913468  0.60686999  0.34841992     0.10100
C1356       C  0.64462101  0.62900080  0.34247131    -0.07000
C1357       C  0.65093155  0.63520022  0.30783632    -0.18300
C1358       C  0.63974704  0.62193453  0.27952753     0.10100
S1359       S  0.62091763  0.59620205  0.39176627    -0.33200
S1360       S  0.64721937  0.63331447  0.23630612    -0.33200
H1361       H  0.64283022  0.60956441  0.21993089     0.28100
H1362       H  0.64479305  0.60346203  0.40684764     0.28100
H1363       H  0.60225683  0.57988249  0.32533706     0.18700
H1364       H  0.66273062  0.65208145  0.30268198     0.18700
C1365       C  0.49074594  0.57944626  0.29498363    -0.07100
C1366       C  0.49082174  0.60301377  0.31295596    -0.18200
C1367       C  0.46982834  0.61048330  0.33355591     0.10100
C1368       C  0.44891728  0.59342431  0.33881005    -0.07000
C1369       C  0.44774371  0.57082319  0.31882316    -0.18300
C1370       C  0.46820488  0.56380664  0.29674555     0.10100
S1371       S  0.47168441  0.64111540  0.35526338    -0.33200
S1372       S  0.46500452  0.53393360  0.27343395    -0.33200
H1373       H  0.49157109  0.52769603  0.27501183     0.28100
H1374       H  0.44463076  0.64407587  0.35846169     0.28100
H1375       H  0.50709920  0.61616736  0.31024282     0.18700
H1376       H  0.43203449  0.55723892  0.32321099     0.18700
C1377       C  0.49640251  0.59550464  0.04382824    -0.07100
C1378       C  0.51672718  0.57758499  0.04425631    -0.18200
C1379       C  0.53671484  0.57898481  0.06899303     0.10100
C1380       C  0.53654550  0.59851253  0.09437549    -0.07000
C1381       C  0.51766123  0.61766153  0.09231475    -0.18300
C1382       C  0.49775753  0.61659408  0.06734351     0.10100
S1383       S  0.56108078  0.55427246  0.06843313    -0.33200
S1384       S  0.47477204  0.64259323  0.06831561    -0.33200
H1385       H  0.47320914  0.64603190  0.03220575     0.28100
H1386       H  0.57946681  0.56763448  0.08884368     0.28100
H1387       H  0.51680953  0.56196822  0.02563376     0.18700
H1388       H  0.51713976  0.63245297  0.11216303     0.18700
C1389       C  0.56372121  0.48149619  0.09605082    -0.07100
C1390       C  0.54293520  0.48424625  0.11969096    -0.18200
C1391       C  0.54414306  0.50035444  0.14903611     0.10100
C1392       C  0.56615343  0.51631799  0.15491123    -0.07000
C1393       C  0.58709678  0.51377002  0.13121497    -0.18300
C1394       C  0.58616229  0.49672204  0.10233768     0.10100
S1395       S  0.51629723  0.49974246  0.17735612    -0.33200
S1396       S  0.61328178  0.49700558  0.07287357    -0.33200
H1397       H  0.59810181  0.49297848  0.04271884     0.28100
H1398       H  0.53143792  0.49657945  0.20776316     0.28100
H1399       H  0.52539074  0.47306895  0.11596455     0.18700
H1400       H  0.60400945  0.52607474  0.13416587     0.18700
C1401       C  0.86956690  0.60075256  0.22303753    -0.07100
C1402       C  0.87259316  0.58993806  0.18968764    -0.18200
C1403       C  0.86169940  0.60157374  0.15961396     0.10100
C1404       C  0.84841573  0.62526273  0.16236642    -0.07000
C1405       C  0.84317611  0.63449092  0.19599230    -0.18300
C1406       C  0.85302891  0.62228253  0.22604618     0.10100
S1407       S  0.86823199  0.58711346  0.11798242    -0.33200
S1408       S  0.84682597  0.63718819  0.26752499    -0.33200
H1409       H  0.85054663  0.61472896  0.28737267     0.28100
H1410       H  0.84535367  0.59596888  0.10185726     0.28100
H1411       H  0.88544858  0.57369116  0.18657722     0.18700
H1412       H  0.83312288  0.65260774  0.19879512     0.18700
C1413       C  0.99445693  0.58270959  0.20498634    -0.07100
C1414       C  0.99358162  0.60605859  0.18626845    -0.18200
C1415       C  0.01352003  0.61319526  0.16347573     0.10100
C1416       C  0.03479275  0.59671665  0.15886432    -0.07000
C1417       C  0.03653219  0.57443100  0.17959729    -0.18300
C1418       C  0.01632090  0.56683035  0.20149146     0.10100
S1419       S  0.00980592  0.64247910  0.13889300    -0.33200
S1420       S  0.01858027  0.53551533  0.22154776    -0.33200
H1421       H  0.99174343  0.53017976  0.21965577     0.28100
H1422       H  0.03649999  0.64832449  0.13910060     0.28100
H1423       H  0.97744898  0.61906903  0.18968924     0.18700
H1424       H  0.05216339  0.56135622  0.17577814     0.18700
C1425       C  0.95542554  0.58149048  0.41287214    -0.07100
C1426       C  0.95656336  0.55848687  0.43217635    -0.18200
C1427       C  0.97677028  0.55386721  0.45621330     0.10100
C1428       C  0.99646935  0.57252431  0.46066662    -0.07000
C1429       C  0.99407511  0.59627759  0.44324966    -0.18300
C1430       C  0.97364744  0.60102482  0.41982478     0.10100
S1431       S  0.97840031  0.52339348  0.47870703    -0.33200
S1432       S  0.97239449  0.63105377  0.39604749    -0.33200
H1433       H  0.99528949  0.64181458  0.41011867     0.28100
H1434       H  0.95396428  0.52214903  0.96567184     0.28100
H1435       H  0.94287930  0.54325530  0.42601078     0.18700
H1436       H  0.00841300  0.61120236  0.44786465     0.18700
C1437       C  0.88343903  0.38890191  0.03080817    -0.07100
C1438       C  0.86387386  0.37032204  0.02515049    -0.18200
C1439       C  0.85149560  0.35742381  0.05327349     0.10100
C1440       C  0.85864096  0.36295321  0.08835230    -0.07000
C1441       C  0.87601348  0.38353709  0.09389138    -0.18300
C1442       C  0.88820303  0.39648338  0.06589629     0.10100
S1443       S  0.82730506  0.33305860  0.04399946    -0.33200
S1444       S  0.91109594  0.42158777  0.07685411    -0.33200
H1445       H  0.90872074  0.43478019  0.04492039     0.28100
H1446       H  0.82725207  0.33590997  0.00750987     0.28100
H1447       H  0.85986504  0.36427799  0.99867032     0.18700
H1448       H  0.88176206  0.38836858  0.12030975     0.18700
C1449       C  0.01460272  0.41029745  0.02973250    -0.07100
C1450       C  0.02627284  0.38709222  0.04065216    -0.18200
C1451       C  0.04603850  0.38649582  0.06549477     0.10100
C1452       C  0.05456416  0.40966299  0.08020047    -0.07000
C1453       C  0.04547251  0.43305477  0.06570814    -0.18300
C1454       C  0.02525843  0.43364551  0.04121339     0.10100
S1455       S  0.05623337  0.35555420  0.08138339    -0.33200
S1456       S  0.01201311  0.46445124  0.02929470    -0.33200
H1457       H  0.98587312  0.45659062  0.03195151     0.28100
H1458       H  0.08274475  0.36232891  0.08244737     0.28100
H1459       H  0.01895227  0.36890465  0.03120827     0.18700
H1460       H  0.05149214  0.45112481  0.07696709     0.18700
C1461       C  0.97671782  0.40857087  0.34278858    -0.07100
C1462       C  0.00216294  0.41755565  0.34991104    -0.18200
C1463       C  0.01920468  0.42483306  0.32352862     0.10100
C1464       C  0.01107086  0.42315315  0.28861300    -0.07000
C1465       C  0.98485675  0.41664652  0.28133507    -0.18300
C1466       C  0.96767256  0.40906054  0.30804273     0.10100
S1467       S  0.05148774  0.43507391  0.33604858    -0.33200
S1468       S  0.93568245  0.39799111  0.29582845    -0.33200
H1469       H  0.93409351  0.37867771  0.32144668     0.28100
H1470       H  0.05607177  0.44996816  0.30601133     0.28100
H1471       H  0.00919700  0.41840689  0.37659575     0.18700
H1472       H  0.97840149  0.41508789  0.25446461     0.18700
C1473       C  0.89683204  0.32279263  0.43525463    -0.07100
C1474       C  0.88303296  0.31261667  0.46379292    -0.18200
C1475       C  0.87141017  0.28846226  0.46238061     0.10100
C1476       C  0.87243080  0.27442496  0.43102706    -0.07000
C1477       C  0.88563734  0.28496369  0.40214847    -0.18300
C1478       C  0.89787411  0.30883351  0.40393853     0.10100
S1479       S  0.85751256  0.27618997  0.50224816    -0.33200
S1480       S  0.91615420  0.31930979  0.36651947    -0.33200
H1481       H  0.90106161  0.34151737  0.36174265     0.28100
H1482       H  0.86926056  0.25192402  0.49946684     0.28100
H1483       H  0.88227967  0.32308739  0.48815868     0.18700
H1484       H  0.88670577  0.27446609  0.37785361     0.18700
C1485       C  0.93826788  0.46978264  0.39618042    -0.07100
C1486       C  0.95422981  0.47157977  0.36638358    -0.18200
C1487       C  0.94917806  0.48865826  0.33872653     0.10100
C1488       C  0.92875681  0.50662235  0.34125313    -0.07000
C1489       C  0.91213805  0.50436938  0.37057217    -0.18300
C1490       C  0.91631228  0.48602601  0.39742568     0.10100
S1491       S  0.96933151  0.48590796  0.30064772    -0.33200
S1492       S  0.89422775  0.48464569  0.43387365    -0.33200
H1493       H  0.87598056  0.50230195  0.42077113     0.28100
H1494       H  0.94879863  0.49047567  0.27702621     0.28100
H1495       H  0.97058946  0.45884103  0.36380232     0.18700
H1496       H  0.89625204  0.51774956  0.37327482     0.18700
C1497       C  0.01629809  0.33204314  0.44740101    -0.07100
C1498       C  0.03292493  0.32583363  0.47525535    -0.18200
C1499       C  0.05956359  0.32180965  0.46981754     0.10100
C1500       C  0.06991242  0.32524521  0.43590781    -0.07000
C1501       C  0.05235716  0.32763683  0.40774698    -0.18300
C1502       C  0.02576615  0.33052413  0.41315793     0.10100
S1503       S  0.08121686  0.32154448  0.00696415    -0.33200
S1504       S  0.00519586  0.33542447  0.37548045    -0.33200
H1505       H  0.98164514  0.33022330  0.39271448     0.28100
H1506       H  0.09314125  0.29965465  0.99286160     0.28100
H1507       H  0.02752608  0.33263960  0.00070659     0.18700
H1508       H  0.05937156  0.32850231  0.38117874     0.18700
C1509       C  0.02176815  0.62929016  0.31024590    -0.07100
C1510       C  0.02914796  0.64877099  0.28641052    -0.18200
C1511       C  0.05261201  0.66254351  0.28997763     0.10100
C1512       C  0.06909307  0.65739343  0.31863030    -0.07000
C1513       C  0.06177183  0.63840282  0.34268267    -0.18300
C1514       C  0.03886455  0.62402375  0.33857493     0.10100
S1515       S  0.06081549  0.68521858  0.25594432    -0.33200
S1516       S  0.03383283  0.59844803  0.36953430    -0.33200
H1517       H  0.03270574  0.57939026  0.34360795     0.28100
H1518       H  0.08111669  0.69815796  0.27317695     0.28100
H1519       H  0.01682975  0.65304040  0.26415309     0.18700
H1520       H  0.07472291  0.63392678  0.36424510     0.18700
C1521       C  0.14476857  0.62082841  0.40645280    -0.07100
C1522       C  0.15397471  0.62854755  0.43950717    -0.18200
C1523       C  0.14196348  0.62013373  0.47047423     0.10100
C1524       C  0.11984247  0.60397584  0.46863601    -0.07000
C1525       C  0.11285730  0.59370943  0.43597970    -0.18300
C1526       C  0.12540828  0.60151880  0.40517626     0.10100
S1527       S  0.14794320  0.64926949  0.01162849    -0.33200
S1528       S  0.11323981  0.58911792  0.36440285    -0.33200
H1529       H  0.13595751  0.59450615  0.34542828     0.28100
H1530       H  0.14351463  0.62904700  0.03521294     0.28100
H1531       H  0.16861267  0.64356214  0.44109624     0.18700
H1532       H  0.09601432  0.58117513  0.43406032     0.18700
C1533       C  0.12037437  0.77224379  0.32874151    -0.07100
C1534       C  0.11279096  0.78531311  0.35926846    -0.18200
C1535       C  0.10051231  0.80938567  0.35782734     0.10100
C1536       C  0.09576601  0.82107106  0.32515136    -0.07000
C1537       C  0.10366347  0.80792130  0.29481586    -0.18300
C1538       C  0.11502216  0.78364655  0.29616102     0.10100
S1539       S  0.08989037  0.82328915  0.39815461    -0.33200
S1540       S  0.11993931  0.76752894  0.25518562    -0.33200
H1541       H  0.11214455  0.74315858  0.26731063     0.28100
H1542       H  0.10490984  0.84569935  0.39363832     0.28100
H1543       H  0.11640716  0.77668596  0.38458013     0.18700
H1544       H  0.10014452  0.81619751  0.26926863     0.18700
C1545       C  0.34649909  0.62744333  0.09010974    -0.07100
C1546       C  0.33991629  0.63814276  0.05757526    -0.18200
C1547       C  0.35128204  0.62946577  0.02660329     0.10100
C1548       C  0.36980623  0.60950655  0.02769157    -0.07000
C1549       C  0.37383324  0.59659586  0.05950976    -0.18300
C1550       C  0.36208066  0.60510879  0.09054857     0.10100
S1551       S  0.34419263  0.64706647  0.98714935    -0.33200
S1552       S  0.37059661  0.58893365  0.13057334    -0.33200
H1553       H  0.34854301  0.59686221  0.14905976     0.28100
H1554       H  0.34752321  0.62720522  0.46724113     0.28100
H1555       H  0.32816691  0.65537175  0.05669474     0.18700
H1556       H  0.38808638  0.58136073  0.06087223     0.18700
C1557       C  0.42340289  0.65923125  0.18415375    -0.07100
C1558       C  0.43650549  0.66378002  0.21548081    -0.18200
C1559       C  0.46034826  0.65201527  0.22254005     0.10100
C1560       C  0.47089050  0.63435141  0.19809870    -0.07000
C1561       C  0.45777461  0.63063360  0.16625371    -0.18300
C1562       C  0.43446538  0.64310046  0.15898616     0.10100
S1563       S  0.47571980  0.66059912  0.26321209    -0.33200
S1564       S  0.41927340  0.63738272  0.11737465    -0.33200
H1565       H  0.41323660  0.66338588  0.11176988     0.28100
H1566       H  0.49956309  0.66702002  0.24749082     0.28100
H1567       H  0.42795024  0.67634575  0.23472470     0.18700
H1568       H  0.46551372  0.61773139  0.14681874     0.18700
C1569       C  0.26147930  0.67496322  0.21970788    -0.07100
C1570       C  0.25453645  0.65113880  0.23455055    -0.18200
C1571       C  0.23989378  0.64946340  0.26531806     0.10100
C1572       C  0.23233904  0.67207566  0.28290617    -0.07000
C1573       C  0.23972443  0.69586237  0.26851951    -0.18300
C1574       C  0.25319232  0.69756189  0.23683902     0.10100
S1575       S  0.23130813  0.61780985  0.28081870    -0.33200
S1576       S  0.25937076  0.72930920  0.21999380    -0.33200
H1577       H  0.25043935  0.72319762  0.18625075     0.28100
H1578       H  0.22791369  0.62493624  0.31585126     0.28100
H1579       H  0.26133031  0.63357901  0.22261019     0.18700
H1580       H  0.23311332  0.71344915  0.28056080     0.18700
C1581       C  0.37398336  0.77463844  0.18160985    -0.07100
C1582       C  0.39532934  0.78112402  0.16044095    -0.18200
C1583       C  0.40498349  0.80611912  0.15893365     0.10100
C1584       C  0.39343455  0.82540545  0.17907714    -0.07000
C1585       C  0.37290097  0.81892635  0.20136721    -0.18300
C1586       C  0.36303182  0.79381398  0.20313550     0.10100
S1587       S  0.43073104  0.81266132  0.12887559    -0.33200
S1588       S  0.33637759  0.78720363  0.23254362    -0.33200
H1589       H  0.33656537  0.81094141  0.24992314     0.28100
H1590       H  0.41560766  0.83106340  0.11128652     0.28100
H1591       H  0.40416773  0.76680231  0.14388736     0.18700
H1592       H  0.36495820  0.83361070  0.21800024     0.18700
C1593       C  0.01396679  0.87393335  0.05104765    -0.07100
C1594       C  0.02477229  0.85781991  0.02572729    -0.18200
C1595       C  0.04993351  0.84788957  0.02980802     0.10100
C1596       C  0.06445675  0.85362386  0.06027676    -0.07000
C1597       C  0.05362706  0.86982326  0.08541454    -0.18300
C1598       C  0.02871245  0.87997027  0.08114046     0.10100
S1599       S  0.06286411  0.82247124  0.49269902    -0.33200
S1600       S  0.01617353  0.89923535  0.11602847    -0.33200
H1601       H  0.99178220  0.88687922  0.11563394     0.28100
H1602       H  0.07282606  0.80263746  0.51383263     0.28100
H1603       H  0.01498077  0.84944041  0.49810648     0.18700
H1604       H  0.06447735  0.87418387  0.10901532     0.18700
C1605       C  0.11391771  0.88785401  0.22467536    -0.07100
C1606       C  0.13206415  0.86807600  0.22933011    -0.18200
C1607       C  0.14405069  0.85621178  0.20067227     0.10100
C1608       C  0.13783032  0.86399991  0.16603866    -0.07000
C1609       C  0.12239494  0.88604152  0.16177780    -0.18300
C1610       C  0.11035481  0.89790942  0.19059122     0.10100
S1611       S  0.16548973  0.82971384  0.21002762    -0.33200
S1612       S  0.08892108  0.92484902  0.18349353    -0.33200
H1613       H  0.09158783  0.92609435  0.14703608     0.28100
H1614       H  0.17992769  0.83210931  0.17910523     0.28100
H1615       H  0.13513327  0.86013522  0.25518264     0.18700
H1616       H  0.11760520  0.89240266  0.13562875     0.18700
C1617       C  0.15976872  0.71300512  0.21986304    -0.07100
C1618       C  0.14771786  0.70243515  0.19031620    -0.18200
C1619       C  0.14794770  0.71570023  0.15836931     0.10100
C1620       C  0.15953273  0.74034332  0.15628000    -0.07000
C1621       C  0.17258203  0.75030944  0.18487282    -0.18300
C1622       C  0.17318469  0.73716043  0.21645723     0.10100
S1623       S  0.13339757  0.70031264  0.12103167    -0.33200
S1624       S  0.18945913  0.75367099  0.25217328    -0.33200
H1625       H  0.20422092  0.77095820  0.23199323     0.28100
H1626       H  0.14856870  0.71339395  0.09620708     0.28100
H1627       H  0.13845744  0.68373851  0.19194998     0.18700
H1628       H  0.18071508  0.76951664  0.18310097     0.18700
C1629       C  0.15311006  0.77587322  0.47233464    -0.07100
C1630       C  0.15748611  0.75013768  0.48268949    -0.18200
C1631       C  0.16877672  0.73242829  0.46059488     0.10100
C1632       C  0.17502787  0.74003082  0.42660724    -0.07000
C1633       C  0.17454660  0.76645121  0.41797977    -0.18300
C1634       C  0.16351896  0.78447901  0.44049684     0.10100
S1635       S  0.17344688  0.70015284  0.47660456    -0.33200
S1636       S  0.16168093  0.81733001  0.42587555    -0.33200
H1637       H  0.13800535  0.82287093  0.44221647     0.28100
H1638       H  0.19305593  0.69391537  0.45264239     0.28100
H1639       H  0.15829490  0.75012092  0.00805049     0.18700
H1640       H  0.18006146  0.77278668  0.39209767     0.18700
C1641       C  0.07564417  0.73727455  0.07016142    -0.07100
C1642       C  0.07365515  0.72903244  0.03542650    -0.18200
C1643       C  0.06976005  0.70309138  0.02744646     0.10100
C1644       C  0.06704286  0.68506284  0.05475826    -0.07000
C1645       C  0.06642204  0.69368311  0.08932153    -0.18300
C1646       C  0.07034821  0.71964279  0.09725588     0.10100
S1647       S  0.07183969  0.69034936  0.48319535    -0.33200
S1648       S  0.07175732  0.72859052  0.14264135    -0.33200
H1649       H  0.06718253  0.75487136  0.13709546     0.28100
H1650       H  0.08702543  0.67197078  0.98855480     0.28100
H1651       H  0.07845569  0.74227837  0.01451911     0.18700
H1652       H  0.06389947  0.67998233  0.11034212     0.18700
C1653       C  0.41629179  0.84773544  0.43912790    -0.07100
C1654       C  0.41748325  0.87424670  0.44582796    -0.18200
C1655       C  0.44114830  0.88719751  0.45110239     0.10100
C1656       C  0.46481160  0.87319653  0.45077589    -0.07000
C1657       C  0.46365698  0.84667404  0.44436667    -0.18300
C1658       C  0.43998018  0.83386285  0.43809651     0.10100
S1659       S  0.44491325  0.91148952  0.99044323    -0.33200
S1660       S  0.44097246  0.79982302  0.42917093    -0.33200
H1661       H  0.46802599  0.79775625  0.42481442     0.28100
H1662       H  0.46264492  0.90258594  0.01552431     0.28100
H1663       H  0.40491605  0.87986115  0.96711124     0.18700
H1664       H  0.48154743  0.83582587  0.44414470     0.18700
C1665       C  0.34087075  0.87490573  0.34018651    -0.07100
C1666       C  0.32965072  0.86838698  0.30783550    -0.18200
C1667       C  0.33921157  0.87874202  0.27635974     0.10100
C1668       C  0.36113283  0.89524499  0.27682451    -0.07000
C1669       C  0.37041210  0.90387309  0.30926439    -0.18300
C1670       C  0.36027840  0.89425760  0.34071183     0.10100
S1671       S  0.32431668  0.86831127  0.23617511    -0.33200
S1672       S  0.37536871  0.90486076  0.38068185    -0.33200
H1673       H  0.35417949  0.89862339  0.40219472     0.28100
H1674       H  0.33311935  0.88917146  0.21601193     0.28100
H1675       H  0.31492103  0.85344543  0.30677867     0.18700
H1676       H  0.38729736  0.91641301  0.31016536     0.18700
C1677       C  0.33746586  0.70697132  0.28545689    -0.07100
C1678       C  0.31407498  0.70835618  0.30433412    -0.18200
C1679       C  0.30834162  0.72947610  0.32547413     0.10100
C1680       C  0.32695962  0.74924090  0.32988891    -0.07000
C1681       C  0.35127484  0.74668022  0.31347069    -0.18300
C1682       C  0.35669120  0.72585164  0.29157557     0.10100
S1683       S  0.27591899  0.73136274  0.34292436    -0.33200
S1684       S  0.38745732  0.72572024  0.26930689    -0.33200
H1685       H  0.38910516  0.69881841  0.26753524     0.28100
H1686       H  0.27418110  0.75826074  0.34026362     0.28100
H1687       H  0.29873229  0.69453095  0.29893742     0.18700
H1688       H  0.36629586  0.76102104  0.31774619     0.18700
C1689       C  0.33451888  0.79414401  0.03885248    -0.07100
C1690       C  0.35440136  0.77610868  0.04242086    -0.18200
C1691       C  0.35133506  0.75436487  0.06357112     0.10100
C1692       C  0.32800559  0.75071080  0.08273406    -0.07000
C1693       C  0.30939673  0.77038471  0.08206311    -0.18300
C1694       C  0.31248314  0.79195862  0.06051804     0.10100
S1695       S  0.37815433  0.73225995  0.06495701    -0.33200
S1696       S  0.28697229  0.81556784  0.06001981    -0.33200
H1697       H  0.29757150  0.83373259  0.53766189     0.28100
H1698       H  0.36371862  0.71245227  0.04896811     0.28100
H1699       H  0.37131347  0.77753336  0.02580279     0.18700
H1700       H  0.29213442  0.76880008  0.09803953     0.18700
C1701       C  0.25255560  0.81820131  0.46426881    -0.07100
C1702       C  0.24590234  0.79376246  0.47708063    -0.18200
C1703       C  0.23086236  0.79257873  0.00959753     0.10100
C1704       C  0.21804799  0.81401388  0.02472457    -0.07000
C1705       C  0.22572829  0.83860340  0.01298100    -0.18300
C1706       C  0.24071695  0.83974669  0.48030294     0.10100
S1707       S  0.22670884  0.76014554  0.02537813    -0.33200
S1708       S  0.24745422  0.87218154  0.46645274    -0.33200
H1709       H  0.25399491  0.86578440  0.43199399     0.28100
H1710       H  0.22366130  0.76734650  0.06047373     0.28100
H1711       H  0.25564079  0.77703757  0.46674149     0.18700
H1712       H  0.21627828  0.85538481  0.02356704     0.18700
C1713       C  0.37409081  0.72865879  0.43143161    -0.07100
C1714       C  0.36511762  0.70848637  0.41038937    -0.18200
C1715       C  0.37735229  0.68462028  0.41070722     0.10100
C1716       C  0.39855313  0.68040756  0.43361931    -0.07000
C1717       C  0.40798908  0.70097237  0.45384531    -0.18300
C1718       C  0.39622927  0.72511034  0.45271500     0.10100
S1719       S  0.36576591  0.66094850  0.38004079    -0.33200
S1720       S  0.41069079  0.75011709  0.47907676    -0.33200
H1721       H  0.39570169  0.77088652  0.46745782     0.28100
H1722       H  0.39061057  0.65112348  0.37286336     0.28100
H1723       H  0.34881971  0.71159786  0.39281604     0.18700
H1724       H  0.42434880  0.69811766  0.47135222     0.18700
C1725       C  0.56160794  0.84892060  0.18460143    -0.07100
C1726       C  0.53901693  0.83349162  0.18533839    -0.18200
C1727       C  0.51408746  0.84425323  0.18850812     0.10100
C1728       C  0.51129830  0.87123845  0.18967641    -0.07000
C1729       C  0.53361938  0.88669484  0.18834376    -0.18300
C1730       C  0.55855028  0.87600187  0.18687027     0.10100
S1731       S  0.48595563  0.82332181  0.18989590    -0.33200
S1732       S  0.58536970  0.89832802  0.18860277    -0.33200
H1733       H  0.59588994  0.88710410  0.21898126     0.28100
H1734       H  0.49954594  0.79998640  0.19197462     0.28100
H1735       H  0.54086713  0.81284396  0.18355074     0.18700
H1736       H  0.53169268  0.90736819  0.19013718     0.18700
C1737       C  0.64367045  0.79789829  0.28955335    -0.07100
C1738       C  0.66640345  0.80029501  0.30992491    -0.18200
C1739       C  0.67392582  0.78091337  0.33336227     0.10100
C1740       C  0.65839999  0.75855764  0.33646224    -0.07000
C1741       C  0.63432449  0.75768230  0.31883371    -0.18300
C1742       C  0.62649918  0.77746705  0.29655362     0.10100
S1743       S  0.70443748  0.78498975  0.35612947    -0.33200
S1744       S  0.59569924  0.77420869  0.27423480    -0.33200
H1745       H  0.59333063  0.80038985  0.26577811     0.28100
H1746       H  0.71075014  0.75875939  0.35724822     0.28100
H1747       H  0.67999489  0.81574492  0.30434631     0.18700
H1748       H  0.62126845  0.74150959  0.32263622     0.18700
C1749       C  0.65388623  0.74757060  0.08352293    -0.07100
C1750       C  0.63062485  0.74437238  0.06443653    -0.18200
C1751       C  0.62800850  0.72535228  0.03897993     0.10100
C1752       C  0.64933341  0.70956758  0.03125979    -0.07000
C1753       C  0.67192598  0.71147308  0.05209309    -0.18300
C1754       C  0.67450421  0.73033141  0.07789290     0.10100
S1755       S  0.59789157  0.72366253  0.01489827    -0.33200
S1756       S  0.70540542  0.73295169  0.10009297    -0.33200
H1757       H  0.70507911  0.75988216  0.10284216     0.28100
H1758       H  0.59842825  0.69679245  0.01165990     0.28100
H1759       H  0.61421658  0.75679411  0.06944382     0.18700
H1760       H  0.68873804  0.69993675  0.04569963     0.18700
C1761       C  0.64334360  0.86985583  0.08972759    -0.07100
C1762       C  0.63068559  0.89349943  0.09306321    -0.18200
C1763       C  0.62027023  0.90611669  0.06373989     0.10100
C1764       C  0.62179945  0.89463316  0.03039859    -0.07000
C1765       C  0.63901016  0.87396707  0.02637105    -0.18300
C1766       C  0.64937742  0.86117905  0.05576327     0.10100
S1767       S  0.60271948  0.93550636  0.07067992    -0.33200
S1768       S  0.66743208  0.83206824  0.04867269    -0.33200
H1769       H  0.67958746  0.83172418  0.08163717     0.28100
H1770       H  0.60384424  0.94374785  0.03571243     0.28100
H1771       H  0.62639866  0.90079023  0.11883175     0.18700
H1772       H  0.64155183  0.86555971  0.00080434     0.18700
C1773       C  0.57990104  0.67750392  0.20182065    -0.07100
C1774       C  0.57521964  0.68900032  0.16942742    -0.18200
C1775       C  0.58371729  0.71404700  0.16243245     0.10100
C1776       C  0.59841000  0.72760030  0.18801560    -0.07000
C1777       C  0.60218168  0.71602821  0.22089924    -0.18300
C1778       C  0.59255121  0.69153604  0.22829713     0.10100
S1779       S  0.57587668  0.72675718  0.11995836    -0.33200
S1780       S  0.59781826  0.67895439  0.27163584    -0.33200
H1781       H  0.57391998  0.66586768  0.27376615     0.28100
H1782       H  0.56395539  0.74882470  0.13354429     0.28100
H1783       H  0.56494790  0.67830768  0.14936312     0.18700
H1784       H  0.61307800  0.72592546  0.24107123     0.18700
C1785       C  0.92003007  0.82814913  0.31739046    -0.07100
C1786       C  0.94235485  0.81469422  0.32883008    -0.18200
C1787       C  0.96758954  0.82495586  0.32453252     0.10100
C1788       C  0.97064120  0.84937128  0.30892908    -0.07000
C1789       C  0.94827246  0.86224758  0.29702843    -0.18300
C1790       C  0.92358652  0.85161840  0.29945029     0.10100
S1791       S  0.99466736  0.80677888  0.34117133    -0.33200
S1792       S  0.89793941  0.86898786  0.27754690    -0.33200
H1793       H  0.88675821  0.84682173  0.26287791     0.28100
H1794       H  0.00760411  0.82810841  0.35571002     0.28100
H1795       H  0.94016134  0.79647942  0.34224100     0.18700
H1796       H  0.94997879  0.88080887  0.28435026     0.18700
C1797       C  0.84374332  0.86024461  0.41437811    -0.07100
C1798       C  0.85754236  0.88287843  0.40681326    -0.18200
C1799       C  0.86895704  0.89770750  0.43347531     0.10100
C1800       C  0.86701165  0.88964077  0.46875769    -0.07000
C1801       C  0.85029128  0.86890813  0.47642825    -0.18300
C1802       C  0.83885971  0.85409294  0.44963818     0.10100
S1803       S  0.88734429  0.92569384  0.42053491    -0.33200
S1804       S  0.81982051  0.82598345  0.46043617    -0.33200
H1805       H  0.81986111  0.82966910  0.49677264     0.28100
H1806       H  0.88463275  0.93863742  0.45246428     0.28100
H1807       H  0.86138921  0.88786044  0.37985637     0.18700
H1808       H  0.84836968  0.86260264  0.50322385     0.18700
C1809       C  0.82975879  0.74959788  0.16647791    -0.07100
C1810       C  0.85421588  0.75800111  0.17874606    -0.18200
C1811       C  0.85639930  0.77874092  0.20166518     0.10100
C1812       C  0.83372490  0.78991183  0.21484165    -0.07000
C1813       C  0.80971629  0.78400795  0.19874853    -0.18300
C1814       C  0.80744030  0.76377740  0.17503045     0.10100
S1815       S  0.88827290  0.78986845  0.21414513    -0.33200
S1816       S  0.77535099  0.75566047  0.15917303    -0.33200
H1817       H  0.77981834  0.72913643  0.15622567     0.28100
H1818       H  0.88046683  0.81552896  0.21793936     0.28100
H1819       H  0.87177368  0.74867648  0.16988165     0.18700
H1820       H  0.79209383  0.79288146  0.20827525     0.18700
C1821       C  0.82555039  0.73304686  0.41715543    -0.07100
C1822       C  0.85052032  0.73063286  0.43196632    -0.18200
C1823       C  0.85660380  0.71053603  0.45473000     0.10100
C1824       C  0.83701439  0.69324381  0.46488515    -0.07000
C1825       C  0.81324302  0.69338554  0.44638547    -0.18300
C1826       C  0.80735412  0.71302347  0.42247060     0.10100
S1827       S  0.88857944  0.70993462  0.47416116    -0.33200
S1828       S  0.77586530  0.71228942  0.40159679    -0.33200
H1829       H  0.77278686  0.73907853  0.39985071     0.28100
H1830       H  0.88802249  0.68346503  0.48153073     0.28100
H1831       H  0.86552002  0.74461467  0.42586900     0.18700
H1832       H  0.79794271  0.68010798  0.45392940     0.18700
C1833       C  0.75716848  0.80957338  0.28249477    -0.07100
C1834       C  0.74979217  0.83386177  0.26958671    -0.18200
C1835       C  0.73291298  0.83666420  0.24074968     0.10100
C1836       C  0.72263214  0.81472600  0.22357390    -0.07000
C1837       C  0.73015383  0.79045043  0.23618791    -0.18300
C1838       C  0.74684565  0.78762775  0.26522053     0.10100
S1839       S  0.72594192  0.86894191  0.22646532    -0.33200
S1840       S  0.75521838  0.75530606  0.27746901    -0.33200
H1841       H  0.74830285  0.75868401  0.31257024     0.28100
H1842       H  0.72237312  0.86255185  0.19112755     0.28100
H1843       H  0.75804578  0.85098102  0.28134732     0.18700
H1844       H  0.72205156  0.77333032  0.22425374     0.18700
C1845       C  0.87633549  0.71518161  0.32073828    -0.07100
C1846       C  0.87313553  0.69670685  0.34706003    -0.18200
C1847       C  0.88627636  0.67343098  0.34597698     0.10100
C1848       C  0.90293215  0.66836354  0.31777947    -0.07000
C1849       C  0.90622760  0.68689102  0.29146937    -0.18300
C1850       C  0.89318471  0.71030955  0.29273522     0.10100
S1851       S  0.88136504  0.65132586  0.38164425    -0.33200
S1852       S  0.89920059  0.73305843  0.25828740    -0.33200
H1853       H  0.89620422  0.75516011  0.27881542     0.28100
H1854       H  0.90690883  0.64179845  0.38150304     0.28100
H1855       H  0.86035584  0.70052268  0.36880747     0.18700
H1856       H  0.91864598  0.68288227  0.26939813     0.18700
O1857       O  0.81325857  0.75150300  0.85657422    -0.86300
O1858       O  0.78471256  0.79172914  0.82115660    -0.83400
C1859       C  0.78089500  0.81125917  0.80193030     0.97100
O1860       O  0.79905915  0.82765362  0.79799237    -0.83400
O1861       O  0.82700764  0.84574655  0.85810338    -0.86000
C1862       C  0.84024830  0.84293859  0.88588537     1.01700
O1863       O  0.85515583  0.82401418  0.88964045    -0.78800
O1864       O  0.82771780  0.77884318  0.89484181    -0.79000
C1865       C  0.81904490  0.75683454  0.88777839     1.01600
O1866       O  0.84830894  0.75183891  0.79992980    -0.86300
O1867       O  0.81731908  0.78604603  0.76469970    -0.83400
C1868       C  0.83293415  0.80049998  0.74891138     0.97200
O1869       O  0.84704833  0.81630916  0.76543096    -0.83400
O1870       O  0.87483671  0.83636182  0.82128375    -0.86000
C1871       C  0.89343307  0.82129217  0.82827879     1.01600
O1872       O  0.88941759  0.79974211  0.84197690    -0.78800
O1873       O  0.86525502  0.75463177  0.85235766    -0.79000
C1874       C  0.86373947  0.74380702  0.82316898     1.01600
Cr1875     Cr  0.81727990  0.77249317  0.81255327     1.93700
Cr1876     Cr  0.83683178  0.82903285  0.81265545     1.93200
Cr1877     Cr  0.85756312  0.79009879  0.86685323     1.39100
O1878       O  0.83711151  0.79740134  0.83077217    -1.24100
O1879       O  0.66297963  0.76425084  0.63922211    -0.86300
O1880       O  0.69489122  0.80181098  0.67333128    -0.83400
C1881       C  0.70070200  0.81957211  0.69453194     0.97100
O1882       O  0.68333976  0.83545817  0.70320177    -0.83400
O1883       O  0.65494923  0.85532414  0.64477030    -0.86000
C1884       C  0.63903268  0.85460703  0.61932259     1.01700
O1885       O  0.62124285  0.83768176  0.61775758    -0.78800
O1886       O  0.64187173  0.79040973  0.60455629    -0.79000
C1887       C  0.65370404  0.76962340  0.60956375     1.01600
O1888       O  0.63321509  0.76100256  0.70000284    -0.86300
O1889       O  0.66519605  0.79451019  0.73335123    -0.83400
C1890       C  0.64897203  0.80696548  0.75080317     0.97200
O1891       O  0.63548795  0.82466126  0.73702706    -0.83400
O1892       O  0.60848474  0.85054583  0.68332641    -0.86000
C1893       C  0.58773976  0.83778020  0.67967441     1.01600
O1894       O  0.58918781  0.81452973  0.67102453    -0.78800
O1895       O  0.60874052  0.76691367  0.65399769    -0.79000
C1896       C  0.61510474  0.75357563  0.68017228     1.01600
Cr1897     Cr  0.66261139  0.78265777  0.68482359     1.93700
Cr1898     Cr  0.64545993  0.83913257  0.69041328     1.93200
Cr1899     Cr  0.61724440  0.80293551  0.63953853     1.39100
O1900       O  0.64200144  0.80820252  0.67111696    -1.24100
O1901       O  0.33789755  0.79463402  0.85651867    -0.86300
O1902       O  0.36231637  0.84009337  0.87340232    -0.83400
C1903       C  0.34514924  0.85738538  0.87460856     0.97100
O1904       O  0.32888698  0.85794880  0.89964928    -0.83400
O1905       O  0.29842425  0.83724725  0.95707402    -0.86000
C1906       C  0.28029896  0.82209393  0.94764553     1.01700
O1907       O  0.28537515  0.80466158  0.92556251    -0.78800
O1908       O  0.31656897  0.76701470  0.88865651    -0.79000
C1909       C  0.32664977  0.77322402  0.85972241     1.01600
O1910       O  0.36973866  0.76780719  0.90399680    -0.86300
O1911       O  0.39161636  0.81257476  0.92565364    -0.83400
C1912       C  0.39454178  0.83505710  0.93654534     0.97200
O1913       O  0.37469851  0.84909984  0.94012150    -0.83400
O1914       O  0.34181962  0.82242640  0.48580994    -0.86000
C1915       C  0.32795261  0.80454132  0.49868686     1.01600
O1916       O  0.31438674  0.79419260  0.98532245    -0.78800
O1917       O  0.34577013  0.76114174  0.95039733    -0.79000
C1918       C  0.36346586  0.75435204  0.92991716     1.01600
Cr1919     Cr  0.36334456  0.80436472  0.89252947     1.93700
Cr1920     Cr  0.33683381  0.83961710  0.94520644     1.93200
Cr1921     Cr  0.31701565  0.78400674  0.93590281     1.39100
O1922       O  0.33872041  0.80936879  0.92405130    -1.24100
O1923       O  0.13337938  0.76646164  0.63357519    -0.86300
O1924       O  0.13856121  0.81979454  0.64101203    -0.83400
C1925       C  0.13872322  0.84343866  0.63351290     0.97100
O1926       O  0.13929302  0.85021719  0.60124123    -0.83400
O1927       O  0.18173154  0.82627244  0.56027841    -0.86000
C1928       C  0.19237044  0.80803582  0.54331982     1.01700
O1929       O  0.18037573  0.78683100  0.54010263    -0.78800
O1930       O  0.16722158  0.75955477  0.59945150    -0.79000
C1931       C  0.15438660  0.75484401  0.62667630     1.01600
O1932       O  0.08926296  0.77544480  0.58885204    -0.86300
O1933       O  0.09348821  0.82670635  0.59926671    -0.83400
C1934       C  0.08805832  0.83352243  0.56848648     0.97200
O1935       O  0.10518227  0.83297552  0.54513775    -0.83400
O1936       O  0.14730918  0.81409623  0.50632082    -0.86000
C1937       C  0.13991130  0.79677702  0.99898934     1.01600
O1938       O  0.12563196  0.78046904  0.51909424    -0.78800
O1939       O  0.11847837  0.74809791  0.57217469    -0.79000
C1940       C  0.09520923  0.75362815  0.57776047     1.01600
Cr1941     Cr  0.11548632  0.79724436  0.61334987     1.93700
Cr1942     Cr  0.14276758  0.82911858  0.55550721     1.93200
Cr1943     Cr  0.14747234  0.77075480  0.55853933     1.39100
O1944       O  0.13670811  0.79924118  0.57744384    -1.24100
O1945       O  0.31565094  0.73603112  0.63537020    -0.86300
O1946       O  0.29018668  0.69727305  0.67728883    -0.83400
C1947       C  0.28792636  0.68028468  0.70082937     0.97100
O1948       O  0.30746147  0.66699281  0.70912353    -0.83400
O1949       O  0.33381087  0.64701393  0.64968743    -0.86000
C1950       C  0.34760537  0.64829663  0.62223434     1.01700
O1951       O  0.36414165  0.66616584  0.61836545    -0.78800
O1952       O  0.33757896  0.70986027  0.60273592    -0.79000
C1953       C  0.32544429  0.73055073  0.60621999     1.01600
O1954       O  0.34829332  0.74606260  0.69220713    -0.86300
O1955       O  0.32239715  0.71205335  0.73266259    -0.83400
C1956       C  0.34055402  0.70234594  0.75023061     0.97200
O1957       O  0.35504449  0.68503421  0.73733611    -0.83400
O1958       O  0.38154699  0.65835479  0.68360913    -0.86000
C1959       C  0.40053081  0.67291051  0.67700842     1.01600
O1960       O  0.39672888  0.69525090  0.66559350    -0.78800
O1961       O  0.37111379  0.73953995  0.64512729    -0.79000
C1962       C  0.36374869  0.75413941  0.66931176     1.01600
Cr1963     Cr  0.32072500  0.72051950  0.68280071     1.93700
Cr1964     Cr  0.34431092  0.66660257  0.69300775     1.93200
Cr1965     Cr  0.36571049  0.70214607  0.63592499     1.39100
O1966       O  0.34342740  0.69648534  0.67029571    -1.24100
O1967       O  0.17942427  0.73496292  0.86509118    -0.86300
O1968       O  0.20721002  0.69502062  0.83173664    -0.83400
C1969       C  0.21145808  0.67714813  0.81007115     0.97100
O1970       O  0.19261772  0.66381055  0.79877140    -0.83400
O1971       O  0.16136097  0.64460377  0.85309821    -0.86000
C1972       C  0.14646941  0.64643898  0.87934866     1.01700
O1973       O  0.13026378  0.66452868  0.88161183    -0.78800
O1974       O  0.15721397  0.70850947  0.89780708    -0.79000
C1975       C  0.17087488  0.72850393  0.89436747     1.01600
O1976       O  0.15017569  0.74298678  0.80479014    -0.86300
O1977       O  0.18098414  0.70647291  0.77170368    -0.83400
C1978       C  0.16338680  0.69933530  0.75176728     0.97200
O1979       O  0.14726178  0.68237721  0.76228680    -0.83400
O1980       O  0.11663632  0.65634743  0.81291438    -0.86000
C1981       C  0.09722859  0.67031545  0.81886707     1.01600
O1982       O  0.10036384  0.69253557  0.83109702    -0.78800
O1983       O  0.12555328  0.73706381  0.85073960    -0.79000
C1984       C  0.13221348  0.75053687  0.82479889     1.01600
Cr1985     Cr  0.17759899  0.71787207  0.81952252     1.93700
Cr1986     Cr  0.15444002  0.66399629  0.80842816     1.93200
Cr1987     Cr  0.13031824  0.70011526  0.86263437     1.39100
O1988       O  0.15413264  0.69397871  0.83055798    -1.24100
O1989       O  0.98160826  0.38425534  0.51214262    -0.86300
O1990       O  0.92870583  0.39293297  0.51512744    -0.83400
C1991       C  0.90504668  0.39427355  0.50657356     0.97100
O1992       O  0.89729588  0.39531357  0.96970267    -0.83400
O1993       O  0.92335950  0.43780554  0.93370433    -0.86000
C1994       C  0.94176262  0.44966294  0.91851334     1.01700
O1995       O  0.96420322  0.43958994  0.91753376    -0.78800
O1996       O  0.98691219  0.42345460  0.98208044    -0.79000
C1997       C  0.99540173  0.40423504  0.50905110     1.01600
O1998       O  0.97368283  0.34683971  0.95954431    -0.86300
O1999       O  0.92044943  0.35001073  0.96703306    -0.83400
C2000       C  0.91208684  0.34636328  0.93653902     0.97200
O2001       O  0.91576528  0.36310752  0.91320262    -0.83400
O2002       O  0.93930570  0.40573041  0.87791348    -0.86000
C2003       C  0.96248952  0.39941826  0.86996675     1.01600
O2004       O  0.97597781  0.38873389  0.89270474    -0.78800
O2005       O  0.00219593  0.37745309  0.95033960    -0.79000
C2006       C  0.99650833  0.35396451  0.95220753     1.01600
Cr2007     Cr  0.94994868  0.37095958  0.98416795     1.93700
Cr2008     Cr  0.92087650  0.39989823  0.92565177     1.93200
Cr2009     Cr  0.97990517  0.40681576  0.93661192     1.39100
O2010       O  0.95000227  0.39329687  0.94956110    -1.24100
O2011       O  0.95427794  0.59083235  0.73080440    -0.86300
O2012       O  0.90994869  0.61681585  0.74791811    -0.83400
C2013       C  0.89101805  0.60153167  0.75218404     0.97100
O2014       O  0.89084343  0.58564375  0.77753881    -0.83400
O2015       O  0.91321491  0.55516922  0.83313486    -0.86000
C2016       C  0.92773143  0.53697762  0.82317423     1.01700
O2017       O  0.94517343  0.54176906  0.80069582    -0.78800
O2018       O  0.98314039  0.57162579  0.76305776    -0.79000
C2019       C  0.97607787  0.58030066  0.73381820     1.01600
O2020       O  0.98448370  0.62377751  0.77527464    -0.86300
O2021       O  0.93987900  0.64652386  0.79621846    -0.83400
C2022       C  0.91805129  0.64927365  0.81008459     0.97200
O2023       O  0.90360971  0.63017609  0.81627575    -0.83400
O2024       O  0.93016327  0.60171486  0.86613956    -0.86000
C2025       C  0.94785918  0.58724868  0.87798363     1.01600
O2026       O  0.95759256  0.57012284  0.85939421    -0.78800
O2027       O  0.99054364  0.60132424  0.82296096    -0.79000
C2028       C  0.99798753  0.61850425  0.80195892     1.01600
Cr2029     Cr  0.94663841  0.61747681  0.76515924     1.93700
Cr2030     Cr  0.91162303  0.59301651  0.82132637     1.93200
Cr2031     Cr  0.96692294  0.57267359  0.81003479     1.39100
O2032       O  0.94156662  0.59419518  0.79843992    -1.24100
O2033       O  0.53654643  0.58647322  0.77265007    -0.86300
O2034       O  0.58215201  0.61305316  0.76214270    -0.83400
C2035       C  0.60177079  0.59919578  0.75627791     0.97100
O2036       O  0.60303252  0.58551631  0.72884831    -0.83400
O2037       O  0.58159350  0.55792459  0.66979087    -0.86000
C2038       C  0.56653693  0.53921578  0.67736211     1.01700
O2039       O  0.54853733  0.54284171  0.69938269    -0.78800
O2040       O  0.50833863  0.57023478  0.73638516    -0.79000
C2041       C  0.51443805  0.57697734  0.76690843     1.01600
O2042       O  0.50928335  0.62259890  0.72989933    -0.86300
O2043       O  0.55469271  0.64661232  0.71612884    -0.83400
C2044       C  0.57673056  0.65077251  0.70351217     0.97200
O2045       O  0.59142768  0.63246772  0.69510916    -0.83400
O2046       O  0.56550716  0.60691551  0.64093855    -0.86000
C2047       C  0.54846757  0.59288681  0.62636423     1.01600
O2048       O  0.53881682  0.57418980  0.64231316    -0.78800
O2049       O  0.50500340  0.60401908  0.67914207    -0.79000
C2050       C  0.49762669  0.62055123  0.70101860     1.01600
Cr2051     Cr  0.54631605  0.61537019  0.74252629     1.93700
Cr2052     Cr  0.58312574  0.59536485  0.68540832     1.93200
Cr2053     Cr  0.52730417  0.57413705  0.69112522     1.39100
O2054       O  0.55250838  0.59468813  0.70691030    -1.24100
O2055       O  0.53100216  0.39204131  0.97736145    -0.86300
O2056       O  0.58389305  0.39376641  0.98539688    -0.83400
C2057       C  0.60579422  0.39838736  0.99915203     0.97100
O2058       O  0.60782676  0.40330216  0.53084892    -0.83400
O2059       O  0.58092760  0.44760213  0.55646209    -0.86000
C2060       C  0.56185087  0.46094411  0.56648510     1.01700
O2061       O  0.53907932  0.45310929  0.55930219    -0.78800
O2062       O  0.52636997  0.43140466  0.49230885    -0.79000
C2063       C  0.52201140  0.41419404  0.97235488     1.01600
O2064       O  0.52646023  0.35793416  0.53497373    -0.86300
O2065       O  0.58043223  0.35558457  0.53722925    -0.83400
C2066       C  0.58589488  0.35533378  0.56911908     0.97200
O2067       O  0.58272486  0.37493988  0.58756865    -0.83400
O2068       O  0.55724789  0.41894921  0.60938308    -0.86000
C2069       C  0.53278608  0.41662983  0.61281272     1.01600
O2070       O  0.51908907  0.40769425  0.58869155    -0.78800
O2071       O  0.50061525  0.39066513  0.52757345    -0.79000
C2072       C  0.50374504  0.36712961  0.53401125     1.01600
Cr2073     Cr  0.55548420  0.37663438  0.51065756     1.93700
Cr2074     Cr  0.58029313  0.41036422  0.56842724     1.93200
Cr2075     Cr  0.52402507  0.41978895  0.54141524     1.39100
O2076       O  0.55375470  0.40278541  0.53979595    -1.24100
O2077       O  0.81226100  0.22844964  0.88062748    -0.86300
O2078       O  0.78809589  0.18806728  0.92117889    -0.83400
C2079       C  0.78546747  0.17172862  0.94551193     0.97100
O2080       O  0.80530678  0.15992519  0.95676786    -0.83400
O2081       O  0.83860558  0.14137862  0.90301614    -0.86000
C2082       C  0.85381086  0.14316840  0.87705322     1.01700
O2083       O  0.86869907  0.16224530  0.87390360    -0.78800
O2084       O  0.83476006  0.19950632  0.85537719    -0.79000
C2085       C  0.82431330  0.22101946  0.85402635     1.01600
O2086       O  0.84013663  0.24228959  0.94073909    -0.86300
O2087       O  0.81398815  0.20719359  0.97967983    -0.83400
C2088       C  0.82911486  0.19804648  0.50344534     0.97200
O2089       O  0.84627353  0.18201518  0.49367315    -0.83400
O2090       O  0.88274995  0.16052748  0.94256673    -0.86000
C2091       C  0.90036526  0.17679652  0.93500482     1.01600
O2092       O  0.89456325  0.19710551  0.91905262    -0.78800
O2093       O  0.86495998  0.23616784  0.89531736    -0.79000
C2094       C  0.85771822  0.24995242  0.92038058     1.01600
Cr2095     Cr  0.81542497  0.21434766  0.92946835     1.93700
Cr2096     Cr  0.84358050  0.16328751  0.94621647     1.93200
Cr2097     Cr  0.86388187  0.19833459  0.88821357     1.39100
O2098       O  0.84125221  0.19217101  0.92180439    -1.24100
O2099       O  0.68862480  0.24258871  0.62009268    -0.86300
O2100       O  0.70891681  0.20112837  0.57840432    -0.83400
C2101       C  0.70887915  0.18336275  0.55581934     0.97100
O2102       O  0.68799827  0.17116108  0.54959775    -0.83400
O2103       O  0.66091840  0.15292768  0.60978008    -0.86000
C2104       C  0.64905351  0.15504134  0.63864184     1.01700
O2105       O  0.63639545  0.17512094  0.64563122    -0.78800
O2106       O  0.66898594  0.21644054  0.65561219    -0.79000
C2107       C  0.68081560  0.23726794  0.65036359     1.01600
O2108       O  0.65336700  0.25306794  0.56625676    -0.86300
O2109       O  0.67608608  0.21687109  0.52462574    -0.83400
C2110       C  0.65881675  0.20511960  0.00830181     0.97200
O2111       O  0.64081783  0.19317917  0.52425702    -0.83400
O2112       O  0.61355205  0.17068314  0.57814265    -0.86000
C2113       C  0.59723332  0.18766025  0.58622605     1.01600
O2114       O  0.60415923  0.20744114  0.60241382    -0.78800
O2115       O  0.63425455  0.24824306  0.61705413    -0.79000
C2116       C  0.63859830  0.26118483  0.58994814     1.01600
Cr2117     Cr  0.68010034  0.22624547  0.57413584     1.93700
Cr2118     Cr  0.65143769  0.17415167  0.56755405     1.93200
Cr2119     Cr  0.63758414  0.21101322  0.62731468     1.39100
O2120       O  0.65647813  0.20372441  0.58993347    -1.24100
O2121       O  0.03017141  0.10726590  0.50949540    -0.86300
O2122       O  0.08251568  0.10742976  0.50518797    -0.83400
C2123       C  0.10521253  0.10524847  0.49343462     0.97100
O2124       O  0.10785220  0.10525011  0.95841324    -0.83400
O2125       O  0.08543181  0.05849095  0.93151687    -0.86000
C2126       C  0.06661485  0.04310368  0.92579829     1.01700
O2127       O  0.04335335  0.05044538  0.92999565    -0.78800
O2128       O  0.02459544  0.07443261  0.99187104    -0.79000
C2129       C  0.02034532  0.08546477  0.51315541     1.01600
O2130       O  0.02648234  0.14642567  0.94590029    -0.86300
O2131       O  0.08130525  0.14818138  0.94876946    -0.83400
C2132       C  0.08175072  0.15101569  0.91644523     0.97200
O2133       O  0.08004009  0.13128326  0.89757936    -0.83400
O2134       O  0.06144571  0.08220999  0.87577284    -0.86000
C2135       C  0.03693983  0.08158554  0.87142828     1.01600
O2136       O  0.02274968  0.09290454  0.89259297    -0.78800
O2137       O  0.00109376  0.11254103  0.94933709    -0.79000
C2138       C  0.00390017  0.13651165  0.94558899     1.01600
Cr2139     Cr  0.05443767  0.12828635  0.97302290     1.93700
Cr2140     Cr  0.08198080  0.09548412  0.91802721     1.93200
Cr2141     Cr  0.02537680  0.08349391  0.94140137     1.39100
O2142       O  0.05426869  0.10156382  0.94479468    -1.24100
O2143       O  0.01098032  0.89652526  0.74427153    -0.86300
O2144       O  0.06489523  0.89805295  0.73828626    -0.83400
C2145       C  0.08873622  0.89722860  0.74619987     0.97100
O2146       O  0.09551213  0.89797126  0.77852594    -0.83400
O2147       O  0.07423223  0.94137498  0.81880836    -0.86000
C2148       C  0.05672757  0.95367478  0.83515402     1.01700
O2149       O  0.03398782  0.94410932  0.83713600    -0.78800
O2150       O  0.00737687  0.93197715  0.77524285    -0.79000
C2151       C  0.00143646  0.91867594  0.74887229     1.01600
O2152       O  0.01608122  0.85371456  0.79130516    -0.86300
O2153       O  0.06911419  0.85331199  0.78026486    -0.83400
C2154       C  0.07877505  0.84864331  0.80996020     0.97200
O2155       O  0.07700236  0.86513510  0.83397451    -0.83400
O2156       O  0.05831068  0.90839964  0.87291736    -0.86000
C2157       C  0.03506359  0.90307252  0.88156862     1.01600
O2158       O  0.02123105  0.89190884  0.85973665    -0.78800
O2159       O  0.99040432  0.88532950  0.80475107    -0.79000
C2160       C  0.99415519  0.86170387  0.80081004     1.01600
Cr2161     Cr  0.04052322  0.87716682  0.76610849     1.93700
Cr2162     Cr  0.07416463  0.90272345  0.82395059     1.93200
Cr2163     Cr  0.01544529  0.91266646  0.81821770     1.39100
O2164       O  0.04374028  0.89853434  0.80160093    -1.24100
O2165       O  0.18418170  0.27043638  0.86872298    -0.86300
O2166       O  0.20053167  0.28887545  0.93726633    -0.83400
C2167       C  0.20748521  0.31179426  0.94401453     0.97100
O2168       O  0.19364294  0.33044621  0.93349801    -0.83400
O2169       O  0.15093489  0.35432960  0.89809632    -0.86000
C2170       C  0.15219288  0.35135975  0.86507227     1.01700
O2171       O  0.15051996  0.32921969  0.85206031    -0.78800
O2172       O  0.14611954  0.27719890  0.84548737    -0.79000
C2173       C  0.16778164  0.26642173  0.84440737     1.01600
O2174       O  0.13988487  0.24906130  0.90076956    -0.86300
O2175       O  0.15345213  0.26888369  0.96256714    -0.83400
C2176       C  0.15490214  0.28508234  0.49047844     0.97200
O2177       O  0.15914053  0.30850907  0.48420022    -0.83400
O2178       O  0.11708652  0.32665502  0.94890509    -0.86000
C2179       C  0.09952912  0.32792738  0.92612745     1.01600
O2180       O  0.10626252  0.32874537  0.89483489    -0.78800
O2181       O  0.10666754  0.27513922  0.89442134    -0.79000
C2182       C  0.11571149  0.25266271  0.89743939     1.01600
Cr2183     Cr  0.16870395  0.27205010  0.91655241     1.93700
Cr2184     Cr  0.15501074  0.32811722  0.93783886     1.93200
Cr2185     Cr  0.12924954  0.30272175  0.87439369     1.39100
O2186       O  0.15179407  0.30112240  0.90930816    -1.24100
O2187       O  0.31786660  0.26786871  0.61265727    -0.86300
O2188       O  0.29185205  0.30832884  0.57510417    -0.83400
C2189       C  0.28813205  0.32507967  0.55161424     0.97100
O2190       O  0.30724754  0.33915162  0.54262169    -0.83400
O2191       O  0.33833565  0.35942830  0.59936899    -0.86000
C2192       C  0.35286634  0.35813461  0.62629109     1.01700
O2193       O  0.36691124  0.33865617  0.63188866    -0.78800
O2194       O  0.33842650  0.29464371  0.64635875    -0.79000
C2195       C  0.32734193  0.27325449  0.64209106     1.01600
O2196       O  0.34885684  0.26029896  0.55455651    -0.86300
O2197       O  0.32058607  0.29468759  0.51653442    -0.83400
C2198       C  0.33841566  0.30027622  0.99974780     0.97200
O2199       O  0.35378145  0.32081804  0.51106050    -0.83400
O2200       O  0.38412226  0.34489609  0.56189345    -0.86000
C2201       C  0.40237595  0.32959419  0.56948132     1.01600
O2202       O  0.39771199  0.30887082  0.58499381    -0.78800
O2203       O  0.37148660  0.26587520  0.60249798    -0.79000
C2204       C  0.36572253  0.25258088  0.57607131     1.01600
Cr2205     Cr  0.32139508  0.28509304  0.56625774     1.93700
Cr2206     Cr  0.34561139  0.33884631  0.55598362     1.93200
Cr2207     Cr  0.36670014  0.30274982  0.61369566     1.39100
O2208       O  0.34455758  0.30898080  0.57890769    -1.24100
O2209       O  0.01252080  0.56271403  0.51714860    -0.86300
O2210       O  0.05710527  0.54319190  0.55671392    -0.83400
C2211       C  0.07646473  0.54402875  0.57755509     0.97100
O2212       O  0.08675485  0.56545139  0.58542751    -0.83400
O2213       O  0.10303953  0.59306579  0.52580062    -0.86000
C2214       C  0.09968074  0.60397820  0.49646439     1.01700
O2215       O  0.08216322  0.61987678  0.98998940    -0.78800
O2216       O  0.04413289  0.58437817  0.97851550    -0.79000
C2217       C  0.02312553  0.57236516  0.98176858     1.01600
O2218       O  0.00334646  0.59687145  0.57248279    -0.86300
O2219       O  0.04174354  0.57455527  0.61181147    -0.83400
C2220       C  0.04807300  0.59509083  0.62678263     0.97200
O2221       O  0.06256046  0.61125327  0.61156799    -0.83400
O2222       O  0.08322624  0.63913928  0.55695259    -0.86000
C2223       C  0.06499942  0.65411898  0.54853004     1.01600
O2224       O  0.04505188  0.64601627  0.53324102    -0.78800
O2225       O  0.00489388  0.61445633  0.52070305    -0.79000
C2226       C  0.99362299  0.61158964  0.54962117     1.01600
Cr2227     Cr  0.03058285  0.57087090  0.56270149     1.93700
Cr2228     Cr  0.08179593  0.60159566  0.56810673     1.93200
Cr2229     Cr  0.04279788  0.61306256  0.50896003     1.39100
O2230       O  0.05193669  0.59504865  0.54624918    -1.24100
O2231       O  0.02697359  0.42626021  0.72623748    -0.86300
O2232       O  0.06800345  0.45257883  0.68923572    -0.83400
C2233       C  0.08691704  0.45574587  0.66851242     0.97100
O2234       O  0.10077108  0.43672140  0.66049832    -0.83400
O2235       O  0.11766584  0.40992961  0.72121892    -0.86000
C2236       C  0.11548443  0.39561979  0.74790015     1.01700
O2237       O  0.09755639  0.37897120  0.74983259    -0.78800
O2238       O  0.05243210  0.40512969  0.76194444    -0.79000
C2239       C  0.03240073  0.41845037  0.75664831     1.01600
O2240       O  0.01999124  0.39454194  0.66790941    -0.86300
O2241       O  0.05696047  0.42145141  0.63124862    -0.83400
C2242       C  0.06915722  0.40455186  0.61454615     0.97200
O2243       O  0.08550663  0.39006989  0.62971399    -0.83400
O2244       O  0.10858719  0.36258957  0.68509015    -0.86000
C2245       C  0.09339843  0.34366247  0.68948226     1.01600
O2246       O  0.07054544  0.34764544  0.69968617    -0.78800
O2247       O  0.02484109  0.37218434  0.71590769    -0.79000
C2248       C  0.01153240  0.37809352  0.68932208     1.01600
Cr2249     Cr  0.04519953  0.42211590  0.68030089     1.93700
Cr2250     Cr  0.10071683  0.39990410  0.67595039     1.93200
Cr2251     Cr  0.06203397  0.37779989  0.72893460     1.39100
O2252       O  0.06920110  0.40002905  0.69517805    -1.24100
O2253       O  0.96188003  0.94348794  0.51388852    -0.86300
O2254       O  0.93634787  0.95313590  0.57830900    -0.83400
C2255       C  0.91189002  0.95624486  0.57982532     0.97100
O2256       O  0.89653068  0.93971281  0.56682002    -0.83400
O2257       O  0.88224842  0.89486501  0.52826960    -0.86000
C2258       C  0.88689950  0.89715108  0.49559755     1.01700
O2259       O  0.90894443  0.90027196  0.98428930    -0.78800
O2260       O  0.96295335  0.90788289  0.98416758    -0.79000
C2261       C  0.96682633  0.93156703  0.98241757     1.01600
O2262       O  0.98835166  0.90141421  0.54627274    -0.86300
O2263       O  0.96206866  0.90872984  0.60395038    -0.83400
C2264       C  0.94534213  0.91258518  0.62649933     0.97200
O2265       O  0.92150217  0.91055696  0.61856455    -0.83400
O2266       O  0.91022189  0.86514972  0.58113211    -0.86000
C2267       C  0.90974290  0.84918538  0.55645490     1.01600
O2268       O  0.91485841  0.85653293  0.52600186    -0.78800
O2269       O  0.96712860  0.86574773  0.53419070    -0.79000
C2270       C  0.98762015  0.87720345  0.54375660     1.01600
Cr2271     Cr  0.95982447  0.92549066  0.55934530     1.93700
Cr2272     Cr  0.90480573  0.90253439  0.57153606     1.93200
Cr2273     Cr  0.93845384  0.88437913  0.51062863     1.39100
O2274       O  0.93403658  0.90481872  0.54678571    -1.24100
O2275       O  0.96649887  0.04800843  0.73867658    -0.86300
O2276       O  0.94161533  0.04126816  0.67299883    -0.83400
C2277       C  0.91696920  0.04001367  0.67157553     0.97100
O2278       O  0.90340997  0.05700355  0.68632009    -0.83400
O2279       O  0.89361878  0.10185391  0.72694417    -0.86000
C2280       C  0.89913661  0.09942829  0.75938829     1.01700
O2281       O  0.92238368  0.09578796  0.76874165    -0.78800
O2282       O  0.97438736  0.08417547  0.76601429    -0.79000
C2283       C  0.97634989  0.06002192  0.76392192     1.01600
O2284       O  0.99899905  0.08766618  0.70817285    -0.86300
O2285       O  0.97203437  0.08214770  0.64886590    -0.83400
C2286       C  0.95397328  0.08309671  0.62706319     0.97200
O2287       O  0.93056477  0.08626109  0.63609547    -0.83400
O2288       O  0.92284989  0.13001799  0.67319068    -0.86000
C2289       C  0.92634338  0.14715490  0.69564371     1.01600
O2290       O  0.93115474  0.14050759  0.72666554    -0.78800
O2291       O  0.98151021  0.12512045  0.71707684    -0.79000
C2292       C  0.00124276  0.11196646  0.71007273     1.01600
Cr2293     Cr  0.96764458  0.06632219  0.69366703     1.93700
Cr2294     Cr  0.91469318  0.09358886  0.68292182     1.93200
Cr2295     Cr  0.95167360  0.10969241  0.74195759     1.39100
O2296       O  0.94423159  0.08935106  0.70637824    -1.24100
O2297       O  0.84006386  0.71320961  0.64767280    -0.86300
O2298       O  0.86086213  0.66465127  0.64044635    -0.83400
C2299       C  0.84369694  0.64713770  0.63950911     0.97100
O2300       O  0.82799900  0.64548477  0.61385428    -0.83400
O2301       O  0.80011736  0.66358973  0.55323129    -0.86000
C2302       C  0.78328657  0.68078592  0.55873065     1.01700
O2303       O  0.78932085  0.69983415  0.57759325    -0.78800
O2304       O  0.82124109  0.73803112  0.60887592    -0.79000
C2305       C  0.82891068  0.73392475  0.63960261     1.01600
O2306       O  0.87538007  0.73319297  0.59877406    -0.86300
O2307       O  0.89433641  0.68462184  0.58691139    -0.83400
C2308       C  0.89532145  0.66139543  0.57815916     0.97200
O2309       O  0.87472911  0.64826348  0.57506529    -0.83400
O2310       O  0.84801690  0.67102582  0.51852837    -0.86000
C2311       C  0.83593856  0.69022242  0.99859785     1.01600
O2312       O  0.82024278  0.70298372  0.51824931    -0.78800
O2313       O  0.85338808  0.73679437  0.55019927    -0.79000
C2314       C  0.87036506  0.74531400  0.57102109     1.01600
Cr2315     Cr  0.86564741  0.69815769  0.61564773     1.93700
Cr2316     Cr  0.83784653  0.65968081  0.56681767     1.93200
Cr2317     Cr  0.82251682  0.71708766  0.56564374     1.39100
O2318       O  0.84177704  0.69163319  0.58309384    -1.24100
O2319       O  0.66079428  0.71417270  0.84873161    -0.86300
O2320       O  0.63404352  0.66875258  0.85770522    -0.83400
C2321       C  0.64855320  0.64976239  0.86412246     0.97100
O2322       O  0.66202309  0.64883974  0.89198823    -0.83400
O2323       O  0.68863494  0.66999488  0.95105959    -0.86000
C2324       C  0.70742835  0.68520436  0.94454756     1.01700
O2325       O  0.70409330  0.70369769  0.92337024    -0.78800
O2326       O  0.67563055  0.74251349  0.88519774    -0.79000
C2327       C  0.66926797  0.73642972  0.85453151     1.01600
O2328       O  0.62278675  0.74039031  0.88957759    -0.86300
O2329       O  0.59891287  0.69512479  0.90253956    -0.83400
C2330       C  0.59502275  0.67341130  0.91577581     0.97200
O2331       O  0.61378196  0.65921242  0.92470856    -0.83400
O2332       O  0.63538496  0.68206337  0.48539106    -0.86000
C2333       C  0.64883985  0.69900883  0.50095560     1.01600
O2334       O  0.67118756  0.71201401  0.97922951    -0.78800
O2335       O  0.64072138  0.74420385  0.94111125    -0.79000
C2336       C  0.62432737  0.75155123  0.91863615     1.01600
Cr2337     Cr  0.63093940  0.70401702  0.87733297     1.93700
Cr2338     Cr  0.65117145  0.66782088  0.93512365     1.93200
Cr2339     Cr  0.67159411  0.72341535  0.93028497     1.39100
O2340       O  0.65146569  0.69817910  0.91383693    -1.24100
O2341       O  0.44383432  0.90069204  0.76792683    -0.86300
O2342       O  0.39744313  0.88060032  0.74541736    -0.83400
C2343       C  0.38183226  0.89898504  0.75013292     0.97100
O2344       O  0.38151920  0.91782867  0.72892463    -0.83400
O2345       O  0.40101350  0.95325617  0.67763603    -0.86000
C2346       C  0.41781590  0.96882340  0.68918736     1.01700
O2347       O  0.43445374  0.96053190  0.71069187    -0.78800
O2348       O  0.47079005  0.92712584  0.74144921    -0.79000
C2349       C  0.46368200  0.91489143  0.76820016     1.01600
O2350       O  0.47089607  0.87528092  0.71415924    -0.86300
O2351       O  0.42495841  0.85897865  0.68654794    -0.83400
C2352       C  0.40179582  0.85789362  0.67635513     0.97200
O2353       O  0.38759278  0.87762493  0.67817351    -0.83400
O2354       O  0.41325174  0.91296564  0.63298581    -0.86000
C2355       C  0.43155959  0.92804176  0.62358330     1.01600
O2356       O  0.44579349  0.93906543  0.64583419    -0.78800
O2357       O  0.47954290  0.90501842  0.67544119    -0.79000
C2358       C  0.48557847  0.88454897  0.69110360     1.01600
Cr2359     Cr  0.43377207  0.88121262  0.72622634     1.93700
Cr2360     Cr  0.39812568  0.91492570  0.68135664     1.93200
Cr2361     Cr  0.45539958  0.93127710  0.69423002     1.39100
O2362       O  0.42931202  0.90926062  0.70060969    -1.24100
O2363       O  0.48490589  0.10473019  0.99881212    -0.86300
O2364       O  0.43163670  0.10226000  0.99187454    -0.83400
C2365       C  0.40782744  0.10474766  0.50075240     0.97100
O2366       O  0.40031893  0.10545004  0.53268967    -0.83400
O2367       O  0.42215573  0.06340526  0.57286890    -0.86000
C2368       C  0.43942822  0.05127602  0.58986825     1.01700
O2369       O  0.46203450  0.06087090  0.59274449    -0.78800
O2370       O  0.48879930  0.07403410  0.53340560    -0.79000
C2371       C  0.49365690  0.08220553  0.00240348     1.01600
O2372       O  0.47693442  0.15193669  0.54762640    -0.86300
O2373       O  0.42470131  0.14924862  0.53468939    -0.83400
C2374       C  0.41625450  0.15452229  0.56458562     0.97200
O2375       O  0.41816451  0.13853329  0.58926337    -0.83400
O2376       O  0.43650527  0.09516336  0.62898286    -0.86000
C2377       C  0.45970329  0.10000202  0.63887180     1.01600
O2378       O  0.47380480  0.11201578  0.61832506    -0.78800
O2379       O  0.50395295  0.12175783  0.56373382    -0.79000
C2380       C  0.49882440  0.14515999  0.55907755     1.01600
Cr2381     Cr  0.45443459  0.12707143  0.52227715     1.93700
Cr2382     Cr  0.42122551  0.10130381  0.57922100     1.93200
Cr2383     Cr  0.48010057  0.09286232  0.57584453     1.39100
O2384       O  0.45173771  0.10631063  0.55836200    -1.24100
O2385       O  0.35009698  0.21233982  0.89070990    -0.86300
O2386       O  0.38011386  0.17017247  0.87712886    -0.83400
C2387       C  0.36550068  0.15057712  0.87605750     0.97100
O2388       O  0.34959956  0.14746286  0.85065055    -0.83400
O2389       O  0.31673577  0.16326525  0.79250499    -0.86000
C2390       C  0.29720236  0.17699360  0.79972787     1.01700
O2391       O  0.30005461  0.19528216  0.82123878    -0.78800
O2392       O  0.32632524  0.23675654  0.85678098    -0.79000
C2393       C  0.33603658  0.23178234  0.88633807     1.01600
O2394       O  0.37946484  0.24220334  0.84298141    -0.86300
O2395       O  0.40652390  0.19972589  0.82450397    -0.83400
C2396       C  0.41133046  0.17794129  0.81226726     0.97200
O2397       O  0.39344411  0.16138633  0.80926678    -0.83400
O2398       O  0.36157278  0.18242450  0.75725797    -0.86000
C2399       C  0.34572339  0.19841844  0.74399575     1.01600
O2400       O  0.32785387  0.20775800  0.76194198    -0.78800
O2401       O  0.35566710  0.24460599  0.79573159    -0.79000
C2402       C  0.37266354  0.25403487  0.81570802     1.01600
Cr2403     Cr  0.37701814  0.20525695  0.85614461     1.93700
Cr2404     Cr  0.35497913  0.16583247  0.80427712     1.93200
Cr2405     Cr  0.32927196  0.21910240  0.81065859     1.39100
O2406       O  0.35347741  0.19661218  0.82410393    -1.24100
O2407       O  0.16043972  0.19895416  0.60656686    -0.86300
O2408       O  0.13390118  0.15533856  0.61836964    -0.83400
C2409       C  0.15207891  0.13924698  0.61583478     0.97100
O2410       O  0.16859742  0.13696994  0.64069891    -0.83400
O2411       O  0.19996810  0.15462831  0.69912700    -0.86000
C2412       C  0.21771747  0.17033587  0.69055760     1.01700
O2413       O  0.21223863  0.18845424  0.66958015    -0.78800
O2414       O  0.18060825  0.22797917  0.63644842    -0.79000
C2415       C  0.16984182  0.22098687  0.60831700     1.01600
O2416       O  0.12782651  0.22687794  0.65393881    -0.86300
O2417       O  0.10530576  0.18026667  0.67254213    -0.83400
C2418       C  0.10335298  0.15717114  0.68228029     0.97200
O2419       O  0.12358980  0.14347935  0.68439828    -0.83400
O2420       O  0.15390608  0.16764851  0.73596554    -0.86000
C2421       C  0.16807824  0.18539442  0.74887546     1.01600
O2422       O  0.18525729  0.19632306  0.73095994    -0.78800
O2423       O  0.15355459  0.23223864  0.69911163    -0.79000
C2424       C  0.13569301  0.24033542  0.67933950     1.01600
Cr2425     Cr  0.13374672  0.19005840  0.64026333     1.93700
Cr2426     Cr  0.16154143  0.15274199  0.68854156     1.93200
Cr2427     Cr  0.18134481  0.20902416  0.68261696     1.39100
O2428       O  0.15878387  0.18406990  0.67074077    -1.24100
O2429       O  0.52750179  0.94032734  0.00950876    -0.86300
O2430       O  0.55321795  0.95900910  0.94775992    -0.83400
C2431       C  0.57363704  0.95790980  0.92918900     0.97100
O2432       O  0.58635824  0.93736014  0.92638612    -0.83400
O2433       O  0.60248166  0.89625330  0.97198823    -0.86000
C2434       C  0.59160543  0.90109970  0.50979866     1.01700
O2435       O  0.56854735  0.89980832  0.52182744    -0.78800
O2436       O  0.51334378  0.90327366  0.52209285    -0.79000
C2437       C  0.50749084  0.92630739  0.52459975     1.01600
O2438       O  0.49737758  0.90600031  0.96496976    -0.86300
O2439       O  0.52098720  0.92715758  0.90934613    -0.83400
C2440       C  0.53220094  0.91611029  0.88485264     0.97200
O2441       O  0.55332102  0.90404123  0.88899776    -0.83400
O2442       O  0.57015637  0.86315461  0.92487508    -0.86000
C2443       C  0.57366080  0.84738251  0.94900648     1.01600
O2444       O  0.56935259  0.85445981  0.97917199    -0.78800
O2445       O  0.51589294  0.86764266  0.97007293    -0.79000
C2446       C  0.49584451  0.88148221  0.96467178     1.01600
Cr2447     Cr  0.52731696  0.93095401  0.95865514     1.93700
Cr2448     Cr  0.57617516  0.90072237  0.93119188     1.93200
Cr2449     Cr  0.54674584  0.88226356  0.99461128     1.39100
O2450       O  0.55045036  0.90542162  0.96123618    -1.24100
O2451       O  0.52805413  0.06400553  0.77797538    -0.86300
O2452       O  0.55442496  0.05518255  0.84235139    -0.83400
C2453       C  0.57803306  0.04794077  0.84198062     0.97100
O2454       O  0.59520484  0.06161553  0.82694909    -0.83400
O2455       O  0.61462615  0.10408841  0.78540326    -0.86000
C2456       C  0.60904957  0.10154816  0.75298127     1.01700
O2457       O  0.58560062  0.09856426  0.74406310    -0.78800
O2458       O  0.53182891  0.09871833  0.74547012    -0.79000
C2459       C  0.52236772  0.07657336  0.75074771     1.01600
O2460       O  0.50850216  0.11068940  0.80387650    -0.86300
O2461       O  0.53636380  0.10617152  0.86168157    -0.83400
C2462       C  0.55133635  0.09808108  0.88453923     0.97200
O2463       O  0.57502813  0.09499817  0.87695478    -0.83400
O2464       O  0.59094279  0.13769189  0.83693173    -0.86000
C2465       C  0.59253417  0.15323575  0.81176499     1.01600
O2466       O  0.58653328  0.14589590  0.78141263    -0.78800
O2467       O  0.53359980  0.14290133  0.78878069    -0.79000
C2468       C  0.51168276  0.13427399  0.79760425     1.01600
Cr2469     Cr  0.53414161  0.08476116  0.82053927     1.93700
Cr2470     Cr  0.59192969  0.09985224  0.82937411     1.93200
Cr2471     Cr  0.55968465  0.11990044  0.76753409     1.39100
O2472       O  0.56220972  0.10050788  0.80501735    -1.24100
O2473       O  0.85628112  0.26676868  0.61841264    -0.86300
O2474       O  0.85440660  0.31967682  0.61141133    -0.83400
C2475       C  0.85455292  0.34319063  0.61925978     0.97100
O2476       O  0.85484302  0.34977029  0.65140736    -0.83400
O2477       O  0.81396354  0.32731700  0.69633463    -0.86000
C2478       C  0.80291595  0.30964234  0.71416927     1.01700
O2479       O  0.81407923  0.28812677  0.71697359    -0.78800
O2480       O  0.82247124  0.26240082  0.65326377    -0.79000
C2481       C  0.83438851  0.25691034  0.62549499     1.01600
O2482       O  0.90208021  0.27151867  0.66053652    -0.86300
O2483       O  0.90177891  0.32410713  0.64930440    -0.83400
C2484       C  0.90777284  0.33361735  0.67849523     0.97200
O2485       O  0.89167636  0.33303735  0.70321512    -0.83400
O2486       O  0.85207744  0.31423732  0.74640813    -0.86000
C2487       C  0.86019615  0.29247614  0.75636880     1.01600
O2488       O  0.86715812  0.27655535  0.73396792    -0.78800
O2489       O  0.87094413  0.24601763  0.67796158    -0.79000
C2490       C  0.89448090  0.24971376  0.67085408     1.01600
Cr2491     Cr  0.87694551  0.29582841  0.63783051     1.93700
Cr2492     Cr  0.85339344  0.32892566  0.69706781     1.93200
Cr2493     Cr  0.84434337  0.27068027  0.69424539     1.39100
O2494       O  0.85736182  0.29877006  0.67548489    -1.24100
O2495       O  0.65237304  0.29794011  0.89891713    -0.86300
O2496       O  0.63270167  0.34438508  0.88105877    -0.83400
C2497       C  0.65193054  0.35971510  0.88323243     0.97100
O2498       O  0.66870500  0.36084701  0.85893084    -0.83400
O2499       O  0.69942870  0.34153164  0.80181071    -0.86000
C2500       C  0.71666375  0.32609960  0.81251990     1.01700
O2501       O  0.71019873  0.30932905  0.83502733    -0.78800
O2502       O  0.67721216  0.27181104  0.87008892    -0.79000
C2503       C  0.66459930  0.27720281  0.89740945     1.01600
O2504       O  0.62261705  0.27243539  0.84705497    -0.86300
O2505       O  0.60387736  0.32008125  0.82482033    -0.83400
C2506       C  0.60256538  0.34350430  0.81668831     0.97200
O2507       O  0.62342725  0.35649678  0.81539310    -0.83400
O2508       O  0.65338659  0.32926026  0.76520980    -0.86000
C2509       C  0.66736935  0.31102876  0.75375996     1.01600
O2510       O  0.68266837  0.29884043  0.77346173    -0.78800
O2511       O  0.65122294  0.26504275  0.80647540    -0.79000
C2512       C  0.63199136  0.25778807  0.82406075     1.01600
Cr2513     Cr  0.62996509  0.30917185  0.86033274     1.93700
Cr2514     Cr  0.66098271  0.34478331  0.81215287     1.93200
Cr2515     Cr  0.67875475  0.28864220  0.82268617     1.39100
O2516       O  0.65668850  0.31400660  0.83196879    -1.24100
O2517       O  0.48258901  0.58320105  0.98717615    -0.86300
O2518       O  0.44533679  0.54989443  0.95234244    -0.83400
C2519       C  0.42673229  0.54410108  0.93180581     0.97100
O2520       O  0.41111456  0.56130270  0.92177155    -0.83400
O2521       O  0.39013569  0.59152022  0.97645522    -0.86000
C2522       C  0.39032788  0.60824208  0.00055209     1.01700
O2523       O  0.40573433  0.62367930  0.50504596    -0.78800
O2524       O  0.45243582  0.60069773  0.52131206    -0.79000
C2525       C  0.47419249  0.59019099  0.51749660     1.01600
O2526       O  0.48695389  0.61071840  0.92397368    -0.86300
O2527       O  0.45415050  0.57734604  0.89145772    -0.83400
C2528       C  0.44197069  0.59267554  0.87211722     0.97200
O2529       O  0.42388304  0.60656373  0.88409480    -0.83400
O2530       O  0.39738153  0.63573378  0.93411575    -0.86000
C2531       C  0.41134223  0.65559384  0.93687628     1.01600
O2532       O  0.43440017  0.65374129  0.94725393    -0.78800
O2533       O  0.48075565  0.63510330  0.96919067    -0.79000
C2534       C  0.49401361  0.62925957  0.94289523     1.01600
Cr2535     Cr  0.46500334  0.58173823  0.94030974     1.93700
Cr2536     Cr  0.40794388  0.59888191  0.93085435     1.93200
Cr2537     Cr  0.44379146  0.62750043  0.98180638     1.39100
O2538       O  0.43883123  0.60230530  0.95155308    -1.24100
O2539       O  0.48239480  0.43875936  0.76402935    -0.86300
O2540       O  0.44295785  0.46362674  0.80141253    -0.83400
C2541       C  0.42524435  0.46653338  0.82376150     0.97100
O2542       O  0.40996989  0.44793435  0.82980029    -0.83400
O2543       O  0.39220194  0.42071197  0.76801640    -0.86000
C2544       C  0.39448305  0.40572695  0.74194231     1.01700
O2545       O  0.41270825  0.38953846  0.74088305    -0.78800
O2546       O  0.45688128  0.41681259  0.72890152    -0.79000
C2547       C  0.47581507  0.43181048  0.73386556     1.01600
O2548       O  0.49124044  0.40589546  0.82136255    -0.86300
O2549       O  0.45358300  0.43236306  0.85809054    -0.83400
C2550       C  0.44322471  0.41381331  0.87355742     0.97200
O2551       O  0.42567967  0.40023702  0.85916546    -0.83400
O2552       O  0.40160235  0.37420501  0.80423768    -0.86000
C2553       C  0.41688990  0.35550895  0.80100907     1.01600
O2554       O  0.44005434  0.35931790  0.79183279    -0.78800
O2555       O  0.48581837  0.38373264  0.77347174    -0.79000
C2556       C  0.49918092  0.38911399  0.80015868     1.01600
Cr2557     Cr  0.46552508  0.43346991  0.80972382     1.93700
Cr2558     Cr  0.40962304  0.41113392  0.81367676     1.93200
Cr2559     Cr  0.44829165  0.38915318  0.76158736     1.39100
O2560       O  0.44122349  0.41149098  0.79470082    -1.24100
C2561       C  0.42669485  0.52010656  0.91061042    -0.07100
C2562       C  0.44995746  0.51316729  0.89408854    -0.18200
C2563       C  0.45013527  0.49690409  0.86467799     0.10100
C2564       C  0.42627513  0.48757181  0.85046544    -0.07000
C2565       C  0.40316811  0.49379182  0.86801187    -0.18300
C2566       C  0.40317536  0.50946239  0.89778669     0.10100
S2567       S  0.48120613  0.48755655  0.84692647    -0.33200
S2568       S  0.37241254  0.51511425  0.91867644    -0.33200
H2569       H  0.38303762  0.52039349  0.95180342     0.28100
H2570       H  0.49705424  0.49968737  0.87200850     0.28100
H2571       H  0.46802123  0.52162673  0.90319885     0.18700
H2572       H  0.38485394  0.48578139  0.85895951     0.18700
C2573       C  0.57648826  0.35589834  0.81127361    -0.07100
C2574       C  0.55568515  0.34096104  0.79855925    -0.18200
C2575       C  0.53042188  0.35096468  0.79510252     0.10100
C2576       C  0.52517070  0.37667302  0.80504820    -0.07000
C2577       C  0.54595282  0.39164478  0.81748147    -0.18300
C2578       C  0.57124470  0.38177403  0.82040231     0.10100
S2579       S  0.50576050  0.32949444  0.77861228    -0.33200
S2580       S  0.59558202  0.40324522  0.83712837    -0.33200
H2581       H  0.60293288  0.38614827  0.86379200     0.28100
H2582       H  0.48640103  0.33881877  0.80071361     0.28100
H2583       H  0.55908123  0.32115841  0.79133591     0.18700
H2584       H  0.54253525  0.41144396  0.82472938     0.18700
C2585       C  0.77896027  0.31409154  0.73657384    -0.07100
C2586       C  0.77179189  0.33920490  0.74629565    -0.18200
C2587       C  0.75307525  0.34389242  0.77262190     0.10100
C2588       C  0.74089593  0.32317573  0.79061592    -0.07000
C2589       C  0.74798674  0.29822014  0.78082035    -0.18300
C2590       C  0.76593820  0.29343523  0.75399988     0.10100
S2591       S  0.74621073  0.37690881  0.78286414    -0.33200
S2592       S  0.77045722  0.26004105  0.74319841    -0.33200
H2593       H  0.77297375  0.26429685  0.70715409     0.28100
H2594       H  0.73966491  0.37231077  0.81791558     0.28100
H2595       H  0.78153015  0.35542566  0.73426075     0.18700
H2596       H  0.73818640  0.28198883  0.79279007     0.18700
C2597       C  0.60272876  0.17971928  0.81641327    -0.07100
C2598       C  0.61786886  0.19009593  0.78950297    -0.18200
C2599       C  0.62800954  0.21507083  0.79118808     0.10100
C2600       C  0.62146968  0.23112782  0.81969783    -0.07000
C2601       C  0.60627170  0.22057389  0.84675570    -0.18300
C2602       C  0.59747845  0.19495728  0.84589352     0.10100
S2603       S  0.65006339  0.22507511  0.75719500    -0.33200
S2604       S  0.57912824  0.18240526  0.88223008    -0.33200
H2605       H  0.58624890  0.20168635  0.90614485     0.28100
H2606       H  0.64715630  0.20365349  0.73521372     0.28100
H2607       H  0.62242334  0.17814252  0.76732617     0.18700
H2608       H  0.60173045  0.23224467  0.86921247     0.18700
C2609       C  0.58501617  0.02472740  0.86319621    -0.07100
C2610       C  0.58257279  0.00029421  0.84853854    -0.18200
C2611       C  0.58232158  0.97806653  0.86967244     0.10100
C2612       C  0.58126994  0.98031022  0.90667649    -0.07000
C2613       C  0.58549096  0.00457785  0.92122231    -0.18300
C2614       C  0.58908698  0.02639093  0.89978841     0.10100
S2615       S  0.58214953  0.94718658  0.84850888    -0.33200
S2616       S  0.60080067  0.05565671  0.91924547    -0.33200
H2617       H  0.60029305  0.04726224  0.95414027     0.28100
H2618       H  0.58906903  0.95609557  0.81512487     0.28100
H2619       H  0.58015454  0.99865722  0.82056328     0.18700
H2620       H  0.58640537  0.00631294  0.94932493     0.18700
C2621       C  0.43833776  0.17077978  0.80441595    -0.07100
C2622       C  0.45799128  0.17744701  0.82839465    -0.18200
C2623       C  0.48307153  0.16737434  0.82554030     0.10100
C2624       C  0.48867905  0.15067771  0.79772210    -0.07000
C2625       C  0.46957883  0.14545249  0.77250245    -0.18300
C2626       C  0.44443953  0.15525379  0.77554985     0.10100
S2627       S  0.50590322  0.17417847  0.86023064    -0.33200
S2628       S  0.42028094  0.14724872  0.74290278    -0.33200
H2629       H  0.43766773  0.13725227  0.71827869     0.28100
H2630       H  0.52847781  0.17163396  0.84018871     0.28100
H2631       H  0.45336102  0.18925879  0.85072833     0.18700
H2632       H  0.47404705  0.13247272  0.75135640     0.18700
C2633       C  0.24099023  0.17179243  0.71440676    -0.07100
C2634       C  0.24676151  0.19558073  0.73010666    -0.18200
C2635       C  0.26255292  0.19753567  0.76019049     0.10100
C2636       C  0.27434861  0.17533229  0.77490196    -0.07000
C2637       C  0.26899702  0.15160756  0.75860135    -0.18300
C2638       C  0.25248040  0.14958609  0.72920445     0.10100
S2639       S  0.26700861  0.22917897  0.77808609    -0.33200
S2640       S  0.24717661  0.11800348  0.71131717    -0.33200
H2641       H  0.24176386  0.12640528  0.67715201     0.28100
H2642       H  0.25961186  0.22155299  0.81187287     0.28100
H2643       H  0.23751322  0.21279561  0.72018971     0.18700
H2644       H  0.27832232  0.13439809  0.76838864     0.18700
C2645       C  0.38450181  0.27950292  0.80863706    -0.07100
C2646       C  0.40897557  0.28492372  0.82364995    -0.18200
C2647       C  0.41990603  0.30953087  0.82226516     0.10100
C2648       C  0.40648656  0.32926113  0.80466988    -0.07000
C2649       C  0.38226194  0.32386908  0.78921848    -0.18300
C2650       C  0.37122602  0.29933685  0.79073515     0.10100
S2651       S  0.44994406  0.31478560  0.84569058    -0.33200
S2652       S  0.33959726  0.29524234  0.77106807    -0.33200
H2653       H  0.34835149  0.27652279  0.74763217     0.28100
H2654       H  0.44439723  0.34010415  0.85582118     0.28100
H2655       H  0.41936926  0.27004549  0.83770216     0.18700
H2656       H  0.37188590  0.33891202  0.77549103     0.18700
C2657       C  0.38973901  0.10830945  0.96767798    -0.07100
C2658       C  0.39872850  0.10144122  0.93420250    -0.18200
C2659       C  0.38894351  0.11274315  0.90337760     0.10100
C2660       C  0.36908097  0.13139434  0.90499808    -0.07000
C2661       C  0.35856222  0.13682829  0.93803622    -0.18300
C2662       C  0.36821929  0.12529844  0.96899520     0.10100
S2663       S  0.40517799  0.10505884  0.86315562    -0.33200
S2664       S  0.35398231  0.13528341  0.00946067    -0.33200
H2665       H  0.35206792  0.10378439  0.52332719     0.28100
H2666       H  0.38401187  0.11062882  0.84113160     0.28100
H2667       H  0.41512393  0.08854850  0.93205812     0.18700
H2668       H  0.34380400  0.15152843  0.94005548     0.18700
C2669       C  0.53958176  0.08711902  0.91617606    -0.07100
C2670       C  0.55142207  0.09085144  0.94867636    -0.18200
C2671       C  0.53816123  0.08422377  0.97925286     0.10100
C2672       C  0.51269287  0.07411667  0.97691609    -0.07000
C2673       C  0.50252118  0.06706475  0.94468622    -0.18300
C2674       C  0.51554883  0.07345388  0.91413578     0.10100
S2675       S  0.55256390  0.09109072  0.02124121    -0.33200
S2676       S  0.49974818  0.06554579  0.87317980    -0.33200
H2677       H  0.48143697  0.04803991  0.88669709     0.28100
H2678       H  0.57471551  0.10404422  0.00871205     0.28100
H2679       H  0.57015851  0.10038391  0.95011464     0.18700
H2680       H  0.48284880  0.05953042  0.94330276     0.18700
C2681       C  0.47301409  0.08592926  0.66789753    -0.07100
C2682       C  0.46162745  0.08357643  0.70094030    -0.18200
C2683       C  0.47649353  0.07486485  0.72972608     0.10100
C2684       C  0.50285806  0.06803715  0.72508811    -0.07000
C2685       C  0.51237164  0.06590409  0.69141759    -0.18300
C2686       C  0.49834324  0.07532674  0.66297902     0.10100
S2687       S  0.46275596  0.07482806  0.77291384    -0.33200
S2688       S  0.51502516  0.07520462  0.62157653    -0.33200
H2689       H  0.53256043  0.05534457  0.62958414     0.28100
H2690       H  0.43832220  0.08472215  0.76333440     0.28100
H2691       H  0.44195448  0.09028014  0.70466913     0.18700
H2692       H  0.53257839  0.06064747  0.68801499     0.18700
C2693       C  0.42201865  0.99312135  0.66857962    -0.07100
C2694       C  0.40287441  0.00027466  0.64376939    -0.18200
C2695       C  0.40807525  0.01767327  0.61641635     0.10100
C2696       C  0.43307826  0.02891294  0.61333604    -0.07000
C2697       C  0.45204955  0.02186434  0.63834822    -0.18300
C2698       C  0.44676574  0.00500856  0.66595995     0.10100
S2699       S  0.38219280  0.02374552  0.58570787    -0.33200
S2700       S  0.47300677  0.99939581  0.69633217    -0.33200
H2701       H  0.45710959  0.00213439  0.72584532     0.28100
H2702       H  0.39844488  0.02251323  0.55634110     0.28100
H2703       H  0.38386110  0.99122535  0.64456693     0.18700
H2704       H  0.47136344  0.03019674  0.63731181     0.18700
C2705       C  0.51860870  0.91689551  0.85137567    -0.07100
C2706       C  0.51225142  0.89352706  0.83572958    -0.18200
C2707       C  0.49308441  0.89231713  0.81001258     0.10100
C2708       C  0.48085482  0.91510484  0.79856081    -0.07000
C2709       C  0.48837893  0.93873196  0.81263457    -0.18300
C2710       C  0.50677672  0.93986935  0.83952927     0.10100
S2711       S  0.48544090  0.86119302  0.79233028    -0.33200
S2712       S  0.51464287  0.97062454  0.85892100    -0.33200
H2713       H  0.49895579  0.98578598  0.83694670     0.28100
H2714       H  0.45916929  0.86235001  0.80222211     0.28100
H2715       H  0.52091309  0.87589694  0.84528340     0.18700
H2716       H  0.47950503  0.95616057  0.80283144     0.18700
C2717       C  0.48277671  0.93166946  0.54280087    -0.07100
C2718       C  0.46384646  0.91180768  0.54236840    -0.18200
C2719       C  0.44209675  0.91236135  0.56386414     0.10100
C2720       C  0.43939464  0.93288233  0.58703475    -0.07000
C2721       C  0.45473672  0.95521439  0.58141246    -0.18300
C2722       C  0.47718195  0.95439303  0.56086749     0.10100
S2723       S  0.42026134  0.88524409  0.56321867    -0.33200
S2724       S  0.49932322  0.98125722  0.56286878    -0.33200
H2725       H  0.52176258  0.96611784  0.56658510     0.28100
H2726       H  0.39828802  0.89965809  0.57246588     0.28100
H2727       H  0.46662201  0.89491142  0.52643971     0.18700
H2728       H  0.45195242  0.97183690  0.59789082     0.18700
C2729       C  0.51871524  0.64323970  0.93505017    -0.07100
C2730       C  0.53173115  0.63730496  0.90388691    -0.18200
C2731       C  0.55590198  0.64815368  0.89597743     0.10100
C2732       C  0.56825745  0.66427277  0.92044865    -0.07000
C2733       C  0.55513645  0.67125746  0.95069329    -0.18300
C2734       C  0.53030888  0.66148299  0.95806514     0.10100
S2735       S  0.56978166  0.64094817  0.85409427    -0.33200
S2736       S  0.50662297  0.67701305  0.49107341    -0.33200
H2737       H  0.48432111  0.67984266  0.46995905     0.28100
H2738       H  0.58163218  0.66508083  0.84946977     0.28100
H2739       H  0.52302150  0.62416899  0.88528262     0.18700
H2740       H  0.55798748  0.68516929  0.46915054     0.18700
C2741       C  0.60789281  0.77415532  0.92620275    -0.07100
C2742       C  0.60801139  0.78344050  0.96042385    -0.18200
C2743       C  0.59554617  0.80612636  0.96916786     0.10100
C2744       C  0.58390107  0.82132477  0.94253757    -0.07000
C2745       C  0.58238118  0.81133091  0.90867876    -0.18300
C2746       C  0.59307805  0.78745435  0.90066272     0.10100
S2747       S  0.59532615  0.81368814  0.01499525    -0.33200
S2748       S  0.58594504  0.77498397  0.85803659    -0.33200
H2749       H  0.57746771  0.75100386  0.87079421     0.28100
H2750       H  0.60659287  0.83776096  0.00989329     0.28100
H2751       H  0.61808029  0.77299854  0.98086702     0.18700
H2752       H  0.57219511  0.82189131  0.88843535     0.18700
C2753       C  0.76019963  0.68176930  0.53469749    -0.07100
C2754       C  0.75314005  0.70566844  0.52032597    -0.18200
C2755       C  0.73884931  0.70593974  0.98799955     0.10100
C2756       C  0.73030670  0.68409441  0.96888068    -0.07000
C2757       C  0.73857129  0.65981922  0.98054340    -0.18300
C2758       C  0.74949560  0.65938940  0.51930608     0.10100
S2759       S  0.72902882  0.73822238  0.97745554    -0.33200
S2760       S  0.75522076  0.62773253  0.53681338    -0.33200
H2761       H  0.75863192  0.63587615  0.57151231     0.28100
H2762       H  0.73574820  0.73651952  0.94213012     0.28100
H2763       H  0.76141164  0.72311072  0.53115655     0.18700
H2764       H  0.73157045  0.64278128  0.96722492     0.18700
C2765       C  0.92385696  0.17495518  0.68603795    -0.07100
C2766       C  0.92805728  0.19380805  0.71179176    -0.18200
C2767       C  0.92276525  0.21981736  0.70527420     0.10100
C2768       C  0.91168919  0.22722742  0.67314043    -0.07000
C2769       C  0.90964923  0.20901720  0.64647593    -0.18300
C2770       C  0.91656234  0.18334932  0.65208152     0.10100
S2771       S  0.92944500  0.24267189  0.73932575    -0.33200
S2772       S  0.91565083  0.16257778  0.61470421    -0.33200
H2773       H  0.94095191  0.15349037  0.62102755     0.28100
H2774       H  0.93174952  0.26407763  0.71707196     0.28100
H2775       H  0.93502868  0.18829014  0.73743645     0.18700
H2776       H  0.90159201  0.21463648  0.62142179     0.18700
C2777       C  0.07732091  0.14554880  0.68957277    -0.07100
C2778       C  0.05687644  0.16133392  0.70057332    -0.18200
C2779       C  0.03215597  0.15121500  0.70832285     0.10100
C2780       C  0.02721934  0.12444696  0.70444728    -0.07000
C2781       C  0.04776034  0.10883668  0.69334026    -0.18300
C2782       C  0.07228453  0.11892795  0.68553461     0.10100
S2783       S  0.00819425  0.17372609  0.72326751    -0.33200
S2784       S  0.09544983  0.09681641  0.66770040    -0.33200
H2785       H  0.10132843  0.11319784  0.63959529     0.28100
H2786       H  0.00255485  0.15949754  0.75359019     0.28100
H2787       H  0.06027530  0.18175164  0.70377280     0.18700
H2788       H  0.04456255  0.08848279  0.68937999     0.18700
C2789       C  0.90132254  0.82219802  0.56109624    -0.07100
C2790       C  0.88795651  0.81080182  0.53304918    -0.18200
C2791       C  0.87892365  0.78549201  0.53446997     0.10100
C2792       C  0.88281086  0.77088796  0.56524209    -0.07000
C2793       C  0.89700774  0.78212220  0.59300934     0.04100
C2794       C  0.90648907  0.80737646  0.59113126     0.10100
S2795       S  0.86231844  0.77383779  0.99666921    -0.33200
S2796       S  0.92548929  0.81919474  0.62739256    -0.33200
H2797       H  0.94337567  0.83285887  0.60670411     0.28100
H2798       H  0.87018726  0.79192667  0.47275140     0.28100
H2799       H  0.88398033  0.82208581  0.50987689     0.18700
H2800       H  0.90056689  0.77131960  0.61672227     0.18700
C2801       C  0.90216589  0.97778026  0.60170273    -0.07100
C2802       C  0.90353911  0.00288773  0.58894271    -0.18200
C2803       C  0.90275029  0.02393756  0.61175747     0.10100
C2804       C  0.90497507  0.02005143  0.64843007    -0.07000
C2805       C  0.90130516  0.99510091  0.66107175    -0.18300
C2806       C  0.89783972  0.97437925  0.63802348     0.10100
S2807       S  0.89788200  0.05488892  0.59214896    -0.33200
S2808       S  0.88714409  0.94449156  0.65667507    -0.33200
H2809       H  0.87421207  0.93600938  0.62640161     0.28100
H2810       H  0.88511255  0.06515522  0.62127435     0.28100
H2811       H  0.90540778  0.00613927  0.56113326     0.18700
H2812       H  0.90132229  0.99168330  0.68895865     0.18700
C2813       C  0.12494190  0.26655132  0.68390919    -0.07100
C2814       C  0.09800144  0.27029375  0.68084826    -0.18200
C2815       C  0.08711173  0.29500229  0.68140575     0.10100
C2816       C  0.10343376  0.31688890  0.68538398    -0.07000
C2817       C  0.13048721  0.31300162  0.68749486    -0.18300
C2818       C  0.14128013  0.28834618  0.68698317     0.10100
S2819       S  0.05241310  0.29707369  0.67529523    -0.33200
S2820       S  0.17620564  0.28601070  0.68787438    -0.33200
H2821       H  0.17655116  0.27238115  0.71960514     0.28100
H2822       H  0.05373972  0.31817917  0.65240876     0.28100
H2823       H  0.08532219  0.25379872  0.67737959     0.18700
H2824       H  0.14349649  0.32930898  0.69008849     0.18700
C2825       C  0.93377546  0.34593740  0.68247977    -0.07100
C2826       C  0.94593083  0.35573778  0.65240027    -0.18200
C2827       C  0.97118925  0.36588877  0.65339033     0.10100
C2828       C  0.98507830  0.36656853  0.68534043    -0.07000
C2829       C  0.97279259  0.35689818  0.71547608    -0.18300
C2830       C  0.94749047  0.34685210  0.71448511     0.10100
S2831       S  0.98459530  0.37674641  0.61264429    -0.33200
S2832       S  0.93449756  0.33424792  0.75460099    -0.33200
H2833       H  0.91382290  0.35184053  0.75516293     0.28100
H2834       H  0.00854624  0.36451846  0.61833102     0.28100
H2835       H  0.93575566  0.35523423  0.62757186     0.18700
H2836       H  0.98281959  0.35745594  0.74039710     0.18700
C2837       C  0.08950028  0.47961026  0.64700161    -0.07100
C2838       C  0.09457985  0.47700513  0.61091468    -0.18200
C2839       C  0.09142411  0.49762402  0.58738404     0.10100
C2840       C  0.08333225  0.52158890  0.59998478    -0.07000
C2841       C  0.08098140  0.52477062  0.63634095    -0.18300
C2842       C  0.08394627  0.50420742  0.65979499     0.10100
S2843       S  0.09836578  0.49234834  0.54197035    -0.33200
S2844       S  0.08117302  0.51067253  0.70572614    -0.33200
H2845       H  0.09797699  0.49094612  0.71664074     0.28100
H2846       H  0.10559546  0.51785967  0.53449132     0.28100
H2847       H  0.10014782  0.45850614  0.60070096     0.18700
H2848       H  0.07640876  0.54328112  0.64636596     0.18700
C2849       C  0.92069965  0.64926243  0.57194286    -0.07100
C2850       C  0.93353695  0.65463956  0.54073781    -0.18200
C2851       C  0.95741170  0.64326555  0.53291429     0.10100
C2852       C  0.96857241  0.62508441  0.55639490    -0.07000
C2853       C  0.95541043  0.61982523  0.58772782    -0.18300
C2854       C  0.93212346  0.63211312  0.59605151     0.10100
S2855       S  0.97349744  0.65199704  0.98400944    -0.33200
S2856       S  0.91857675  0.62581093  0.63842599    -0.33200
H2857       H  0.90970252  0.65096032  0.64363111     0.28100
H2858       H  0.99660925  0.66153653  0.99906945     0.28100
H2859       H  0.92706221  0.66864615  0.01429675     0.18700
H2860       H  0.96355358  0.60641910  0.60643806     0.18700
C2861       C  0.35571854  0.37969231  0.65155335    -0.07100
C2862       C  0.34297419  0.37782445  0.68388250    -0.18200
C2863       C  0.35287948  0.39032284  0.71391731     0.10100
C2864       C  0.37611878  0.40480651  0.71181291    -0.07000
C2865       C  0.38699293  0.40900111  0.67870270    -0.18300
C2866       C  0.37715931  0.39669583  0.64882653     0.10100
S2867       S  0.33792001  0.38488697  0.75576914    -0.33200
S2868       S  0.39539993  0.40025578  0.60904945    -0.33200
H2869       H  0.37424127  0.39536930  0.58663161     0.28100
H2870       H  0.31695304  0.36992935  0.74348420     0.28100
H2871       H  0.32683331  0.36452252  0.68635829     0.18700
H2872       H  0.40513181  0.41961346  0.67671518     0.18700
C2873       C  0.33953416  0.29088778  0.96362690    -0.07100
C2874       C  0.31549675  0.28476259  0.94771077    -0.18200
C2875       C  0.31343450  0.26534089  0.92273988     0.10100
C2876       C  0.33590981  0.25172717  0.91334533    -0.07000
C2877       C  0.36024566  0.25978058  0.92645369    -0.18300
C2878       C  0.36233907  0.27968696  0.95068401     0.10100
S2879       S  0.28147043  0.25774069  0.90593090    -0.33200
S2880       S  0.39430886  0.28850168  0.96613179    -0.33200
H2881       H  0.38884584  0.31760739  0.46557409     0.28100
H2882       H  0.28609002  0.23147312  0.90046891     0.28100
H2883       H  0.29781163  0.29352907  0.95721969     0.18700
H2884       H  0.37786247  0.25056454  0.91758201     0.18700
C2885       C  0.33229344  0.25175624  0.66683523    -0.07100
C2886       C  0.35685519  0.25090417  0.68325316    -0.18200
C2887       C  0.36465559  0.22970176  0.70320079     0.10100
C2888       C  0.34729871  0.20911015  0.70856077    -0.07000
C2889       C  0.32390905  0.20865713  0.68928609    -0.18300
C2890       C  0.31613875  0.22968022  0.66881908     0.10100
S2891       S  0.39592903  0.23111132  0.72451879    -0.33200
S2892       S  0.28460459  0.22770632  0.64809499    -0.33200
H2893       H  0.27884068  0.25394317  0.65165791     0.28100
H2894       H  0.39933343  0.20433916  0.72547510     0.28100
H2895       H  0.37036364  0.26678609  0.68022062     0.18700
H2896       H  0.31010919  0.19316514  0.69366308     0.18700
C2897       C  0.37839584  0.22729227  0.57212546    -0.07100
C2898       C  0.39410492  0.21838732  0.59992111    -0.18200
C2899       C  0.40670302  0.19477467  0.59842768     0.10100
C2900       C  0.40298896  0.17910451  0.56900836    -0.07000
C2901       C  0.38715343  0.18765648  0.54147314    -0.18300
C2902       C  0.37499189  0.21145913  0.54248376     0.10100
S2903       S  0.42835643  0.18652293  0.63384000    -0.33200
S2904       S  0.35606654  0.22024248  0.50467032    -0.33200
H2905       H  0.36966611  0.24347398  0.50023884     0.28100
H2906       H  0.44772973  0.17617329  0.61233249     0.28100
H2907       H  0.39707936  0.23003953  0.62297734     0.18700
H2908       H  0.38454365  0.17579571  0.51852604     0.18700
C2909       C  0.22901507  0.31553367  0.97051502    -0.07100
C2910       C  0.23165118  0.29646658  0.99649669    -0.18200
C2911       C  0.24781977  0.30212109  0.52651345     0.10100
C2912       C  0.26468997  0.32377779  0.52751963    -0.07000
C2913       C  0.26259148  0.34164732  0.49964235    -0.18300
C2914       C  0.24433694  0.33803168  0.97414602     0.10100
S2915       S  0.24677777  0.27793872  0.56023931    -0.33200
S2916       S  0.24363693  0.36355470  0.94238489    -0.33200
H2917       H  0.23921201  0.34735977  0.91363185     0.28100
H2918       H  0.24530184  0.29602052  0.58737389     0.28100
H2919       H  0.21954491  0.27938779  0.99532119     0.18700
H2920       H  0.27563207  0.35803545  0.49883043     0.18700
C2921       C  0.13397771  0.39631494  0.77752035    -0.07100
C2922       C  0.12387716  0.40363570  0.80998376    -0.18200
C2923       C  0.13277747  0.39241256  0.84118228     0.10100
C2924       C  0.15210785  0.37319089  0.83990682    -0.07000
C2925       C  0.16507462  0.36930993  0.80812292    -0.18300
C2926       C  0.15614811  0.38050045  0.77702519     0.10100
S2927       S  0.11546226  0.39994376  0.88050917    -0.33200
S2928       S  0.17067107  0.36994836  0.73691193    -0.33200
H2929       H  0.16371535  0.39179068  0.71746579     0.28100
H2930       H  0.13802378  0.40052798  0.90140247     0.28100
H2931       H  0.10682259  0.41575260  0.81068096     0.18700
H2932       H  0.18015356  0.35487695  0.80669621     0.18700
C2933       C  0.15325285  0.27469001  0.52613798    -0.07100
C2934       C  0.13836512  0.25235823  0.52962833    -0.18200
C2935       C  0.14304323  0.23483519  0.55620447     0.10100
C2936       C  0.16376711  0.23955220  0.58017066    -0.07000
C2937       C  0.17619414  0.26372460  0.57953733    -0.18300
C2938       C  0.17045148  0.28171816  0.55331241     0.10100
S2939       S  0.12188294  0.20685372  0.55787181    -0.33200
S2940       S  0.18504259  0.31312237  0.55623226    -0.33200
H2941       H  0.16260206  0.32605505  0.54476896     0.28100
H2942       H  0.10222706  0.21603085  0.53547454     0.28100
H2943       H  0.12409088  0.24770864  0.50969965     0.18700
H2944       H  0.19029554  0.26868552  0.59954651     0.18700
C2945       C  0.16929848  0.24486560  0.81908865    -0.07100
C2946       C  0.18594216  0.22405502  0.82559949    -0.18200
C2947       C  0.18342686  0.20110255  0.80656316     0.10100
C2948       C  0.16297592  0.19809843  0.78203561    -0.07000
C2949       C  0.14483511  0.21773385  0.77843351    -0.18300
C2950       C  0.14908180  0.24158164  0.79379769     0.10100
S2951       S  0.20762350  0.17662234  0.81299971    -0.33200
S2952       S  0.12886905  0.26736373  0.77752372    -0.33200
H2953       H  0.14856158  0.28617176  0.77998433     0.28100
H2954       H  0.19392266  0.15704308  0.79546435     0.28100
H2955       H  0.20094532  0.22561940  0.84542953     0.18700
H2956       H  0.12972570  0.21607842  0.75867000     0.18700
C2957       C  0.98179249  0.92710379  0.72370534    -0.07100
C2958       C  0.99062877  0.93991818  0.69414886    -0.18200
C2959       C  0.97704257  0.93783244  0.66267777     0.10100
C2960       C  0.95477561  0.92157094  0.66069119    -0.07000
C2961       C  0.94388914  0.91196203  0.69136753    -0.18300
C2962       C  0.95709710  0.91501967  0.72317770     0.10100
S2963       S  0.98929054  0.95496040  0.62495806    -0.33200
S2964       S  0.94313667  0.90224084  0.76264809    -0.33200
H2965       H  0.92104623  0.89091425  0.74714745     0.28100
H2966       H  0.00957661  0.96819635  0.64202312     0.28100
H2967       H  0.00936317  0.94952151  0.69498251     0.18700
H2968       H  0.92618334  0.90065632  0.69003105     0.18700
C2969       C  0.02079428  0.91714624  0.90904192    -0.07100
C2970       C  0.99655944  0.92762267  0.89884534    -0.18200
C2971       C  0.98018860  0.93947155  0.92258369     0.10100
C2972       C  0.98699258  0.93960526  0.95789290    -0.07000
C2973       C  0.01262384  0.93273819  0.96746734    -0.18300
C2974       C  0.02964566  0.92143010  0.94337908     0.10100
S2975       S  0.94912802  0.95094108  0.90741522    -0.33200
S2976       S  0.06107879  0.91113405  0.95874899    -0.33200
H2977       H  0.06289775  0.88963791  0.93684167     0.28100
H2978       H  0.94384270  0.96559664  0.93731307     0.28100
H2979       H  0.98994018  0.92620689  0.87203674     0.18700
H2980       H  0.01819087  0.93299508  0.99476303     0.18700
C2981       C  0.12676117  0.10642667  0.52016377    -0.07100
C2982       C  0.14428580  0.12722591  0.51968902    -0.18200
C2983       C  0.15715504  0.13549696  0.55040573     0.10100
C2984       C  0.15197624  0.12351573  0.58298664    -0.07000
C2985       C  0.13728769  0.10069095  0.58238244    -0.18300
C2986       C  0.12502971  0.09194733  0.55152500     0.10100
S2987       S  0.17858814  0.16282288  0.54697561    -0.33200
S2988       S  0.10544995  0.06320359  0.55433115    -0.33200
H2989       H  0.10646469  0.05743685  0.51852325     0.28100
H2990       H  0.19197475  0.15813677  0.57844276     0.28100
H2991       H  0.14628127  0.13850974  0.49605664     0.18700
H2992       H  0.13349702  0.09070704  0.60663898     0.18700
C2993       C  0.09935178  0.22948001  0.89469421    -0.07100
C2994       C  0.10752865  0.21052225  0.87107973    -0.18200
C2995       C  0.09999942  0.18478466  0.87480722     0.10100
C2996       C  0.08411486  0.17770048  0.90310570    -0.07000
C2997       C  0.07357308  0.19725344  0.92415485    -0.18300
C2998       C  0.08107266  0.22294844  0.92038844     0.10100
S2999       S  0.11421426  0.16172540  0.84583963    -0.33200
S3000       S  0.07207348  0.24482319  0.46032778    -0.33200
H3001       H  0.06815457  0.26511814  0.43669175     0.28100
H3002       H  0.09035615  0.14947581  0.83860085     0.28100
H3003       H  0.12166858  0.21545241  0.85128389     0.18700
H3004       H  0.06087240  0.19222026  0.94562337     0.18700
C3005       C  0.07010699  0.01766466  0.90795197    -0.07100
C3006       C  0.08510732  0.01613098  0.87711848    -0.18200
C3007       C  0.08159441  0.99592868  0.85253103     0.10100
C3008       C  0.06258159  0.97660107  0.85843301    -0.07000
C3009       C  0.04846120  0.97812981  0.88981100    -0.18300
C3010       C  0.05238799  0.99752086  0.91452798     0.10100
S3011       S  0.10005967  0.99731701  0.81284201    -0.33200
S3012       S  0.03321925  0.99599709  0.95380515    -0.33200
H3013       H  0.05106398  0.00973858  0.97463578     0.28100
H3014       H  0.08005926  0.98748645  0.79147487     0.28100
H3015       H  0.09818410  0.03180302  0.87071305     0.18700
H3016       H  0.03383399  0.96400703  0.89548248     0.18700
C3017       C  0.99925903  0.08366041  0.53890503    -0.07100
C3018       C  0.99200070  0.05970892  0.55229521    -0.18200
C3019       C  0.97387552  0.05815148  0.57931684     0.10100
C3020       C  0.96148489  0.08072673  0.59092337    -0.07000
C3021       C  0.96578597  0.10382525  0.57412363    -0.18300
C3022       C  0.98557015  0.10615413  0.54994594     0.10100
S3023       S  0.96884064  0.02789891  0.60139797    -0.33200
S3024       S  0.00028965  0.14687596  0.04566335    -0.33200
H3025       H  0.97880033  0.16002047  0.05934642     0.28100
H3026       H  0.98229343  0.01256148  0.57740882     0.28100
H3027       H  0.00202813  0.04264571  0.54368674     0.18700
H3028       H  0.95658294  0.12092308  0.58409873     0.18700
C3029       C  0.99339731  0.04769783  0.78941513    -0.07100
C3030       C  0.98359009  0.04650610  0.82311255    -0.18200
C3031       C  0.99875847  0.05479721  0.85122261     0.10100
C3032       C  0.02390638  0.06538590  0.84483386    -0.07000
C3033       C  0.03547303  0.06096660  0.81245601    -0.18300
C3034       C  0.02040238  0.05116656  0.78482922     0.10100
S3035       S  0.98488248  0.05279851  0.89444788    -0.33200
S3036       S  0.03466420  0.04613138  0.74258761    -0.33200
H3037       H  0.06044133  0.05171578  0.75258827     0.28100
H3038       H  0.96395233  0.03648365  0.88567197     0.28100
H3039       H  0.96305277  0.04266657  0.82680087     0.18700
H3040       H  0.05544721  0.06677311  0.80816384     0.18700
C3041       C  0.56962646  0.18347789  0.57801824    -0.07100
C3042       C  0.55211959  0.18028210  0.60559693    -0.18200
C3043       C  0.52712791  0.17033696  0.59946109     0.10100
C3044       C  0.51970651  0.16375070  0.56520975    -0.07000
C3045       C  0.53625759  0.16940342  0.53736895    -0.18300
C3046       C  0.56106171  0.17946980  0.54343911     0.10100
S3047       S  0.50746301  0.15817268  0.13260885    -0.33200
S3048       S  0.58124675  0.18608617  0.50627738    -0.33200
H3049       H  0.59242309  0.20827617  0.52107553     0.28100
H3050       H  0.52252367  0.17072912  0.15818085     0.28100
H3051       H  0.55965764  0.18025891  0.12875400     0.18700
H3052       H  0.53050606  0.16435736  0.51100620     0.18700
C3053       C  0.65396415  0.21693748  0.97422188    -0.07100
C3054       C  0.63781589  0.23843541  0.97457912    -0.18200
C3055       C  0.64132426  0.25881215  0.95102963     0.10100
C3056       C  0.66139211  0.25749942  0.92555880    -0.07000
C3057       C  0.67627409  0.23490575  0.92388948    -0.18300
C3058       C  0.67277731  0.21481610  0.94779819     0.10100
S3059       S  0.62054439  0.28650166  0.95599314    -0.33200
S3060       S  0.69400223  0.18745351  0.94479438    -0.33200
H3061       H  0.67880037  0.17089982  0.96547675     0.28100
H3062       H  0.60088553  0.27410770  0.97524728     0.28100
H3063       H  0.62417222  0.24052913  0.99582986     0.18700
H3064       H  0.69105453  0.23290417  0.90406488     0.18700
C3065       C  0.66642383  0.30137322  0.71796956    -0.07100
C3066       C  0.69063451  0.29932673  0.70117898    -0.18200
C3067       C  0.69645605  0.27822568  0.67999829     0.10100
C3068       C  0.67764304  0.25870700  0.67519480    -0.07000
C3069       C  0.65266831  0.26226290  0.68919064    -0.18300
C3070       C  0.64675963  0.28351915  0.70973650     0.10100
S3071       S  0.72858883  0.27663130  0.66162683    -0.33200
S3072       S  0.61477810  0.28502146  0.72867439    -0.33200
H3073       H  0.61450022  0.31192964  0.73148027     0.28100
H3074       H  0.73028412  0.24968709  0.66245526     0.28100
H3075       H  0.70611612  0.31268617  0.70786581     0.18700
H3076       H  0.63747042  0.24821538  0.68431839     0.18700
C3077       C  0.62817573  0.10704422  0.72425903    -0.07100
C3078       C  0.62093754  0.10002929  0.68998823    -0.18200
C3079       C  0.63069892  0.11302982  0.66060390     0.10100
C3080       C  0.64793928  0.13395630  0.66500256    -0.07000
C3081       C  0.65768247  0.13886540  0.69872412    -0.18300
C3082       C  0.64873586  0.12510984  0.72806541     0.10100
S3083       S  0.61734142  0.10468149  0.61859693    -0.33200
S3084       S  0.66261097  0.13336519  0.76977311    -0.33200
H3085       H  0.66328678  0.10775712  0.78159634     0.28100
H3086       H  0.64054039  0.10929499  0.60035017     0.28100
H3087       H  0.60572254  0.08582977  0.68607715     0.18700
H3088       H  0.67111291  0.15473131  0.70257379     0.18700
C3089       C  0.92818408  0.17079063  0.94185970    -0.07100
C3090       C  0.94723971  0.17895104  0.91776663    -0.18200
C3091       C  0.97298561  0.16990541  0.91961761     0.10100
C3092       C  0.97976469  0.15191843  0.94564767    -0.07000
C3093       C  0.96100762  0.14485992  0.97045764    -0.18300
C3094       C  0.93581433  0.15454396  0.96951386     0.10100
S3095       S  0.99526414  0.17950094  0.88589844    -0.33200
S3096       S  0.90897108  0.12860958  0.49791284    -0.33200
H3097       H  0.89762099  0.15189011  0.50826914     0.28100
H3098       H  0.01600897  0.18433860  0.90897650     0.28100
H3099       H  0.94177743  0.19142944  0.89631206     0.18700
H3100       H  0.96041699  0.11595294  0.48394634     0.18700
C3101       C  0.85583827  0.12361758  0.84911868    -0.07100
C3102       C  0.84732404  0.13094505  0.81558891    -0.18200
C3103       C  0.85873488  0.12103717  0.78516412     0.10100
C3104       C  0.87961928  0.10345694  0.78794722    -0.07000
C3105       C  0.88587269  0.09398239  0.82151168    -0.18300
C3106       C  0.87445906  0.10392216  0.85180051     0.10100
S3107       S  0.84822440  0.13444060  0.74416504    -0.33200
S3108       S  0.88748119  0.09367935  0.89328481    -0.33200
H3109       H  0.86506227  0.09936189  0.91254196     0.28100
H3110       H  0.84574189  0.11031048  0.72803088     0.28100
H3111       H  0.83347122  0.14648140  0.81306961     0.18700
H3112       H  0.90152115  0.08026824  0.82452866     0.18700
C3113       C  0.82642506  0.20844723  0.53938706    -0.07100
C3114       C  0.80910073  0.22932152  0.54377058    -0.18200
C3115       C  0.80823200  0.24338748  0.57450789     0.10100
C3116       C  0.82519194  0.23699594  0.60168978    -0.07000
C3117       C  0.84044695  0.21468141  0.59917462    -0.18300
C3118       C  0.84089708  0.20010657  0.56848876     0.10100
S3119       S  0.78768381  0.27132800  0.57592939    -0.33200
S3120       S  0.86071116  0.17183454  0.56766134    -0.33200
H3121       H  0.84203736  0.15690000  0.54988175     0.28100
H3122       H  0.78355973  0.27028538  0.61212188     0.28100
H3123       H  0.79748441  0.23571617  0.02116786     0.18700
H3124       H  0.85338879  0.20958026  0.62045736     0.18700
C3125       C  0.83428693  0.24076843  0.82944786    -0.07100
C3126       C  0.82170493  0.26473796  0.82764104    -0.18200
C3127       C  0.83271335  0.28545778  0.80936822     0.10100
C3128       C  0.85650465  0.28213200  0.79187717    -0.07000
C3129       C  0.87089623  0.25997528  0.79894259    -0.18300
C3130       C  0.85954291  0.23873239  0.81481098     0.10100
S3131       S  0.81596785  0.31567489  0.80986680    -0.33200
S3132       S  0.87866523  0.20976442  0.81406657    -0.33200
H3133       H  0.85857578  0.19499504  0.79894926     0.28100
H3134       H  0.83862995  0.33062960  0.80588901     0.28100
H3135       H  0.80335354  0.26747414  0.84086114     0.18700
H3136       H  0.88973490  0.25768889  0.78693210     0.18700
C3137       C  0.76275883  0.17288012  0.96963950    -0.07100
C3138       C  0.75655882  0.19710949  0.98324665    -0.18200
C3139       C  0.74025320  0.20241860  0.51172677     0.10100
C3140       C  0.73020782  0.18069381  0.52964543    -0.07000
C3141       C  0.73547976  0.15625407  0.51573264    -0.18300
C3142       C  0.75258494  0.15093081  0.98668499     0.10100
S3143       S  0.73528426  0.23483240  0.52634579    -0.33200
S3144       S  0.75783848  0.11897374  0.97032921    -0.33200
H3145       H  0.76289641  0.12648139  0.93573581     0.28100
H3146       H  0.74532760  0.22983495  0.55987614     0.28100
H3147       H  0.76429263  0.21424193  0.97089022     0.18700
H3148       H  0.72715085  0.13937821  0.52804489     0.18700
C3149       C  0.65343175  0.37540159  0.91563439    -0.07100
C3150       C  0.65386439  0.36160677  0.94708885    -0.18200
C3151       C  0.64265784  0.37142398  0.97745719     0.10100
C3152       C  0.62892504  0.39487351  0.97628354    -0.07000
C3153       C  0.63158473  0.41020172  0.94615283    -0.18300
C3154       C  0.64495356  0.40114560  0.91657806     0.10100
S3155       S  0.64334880  0.35126901  0.01540507    -0.33200
S3156       S  0.64971138  0.42267190  0.88041044    -0.33200
H3157       H  0.67134185  0.40966203  0.86699561     0.28100
H3158       H  0.64761077  0.37566716  0.53757066     0.28100
H3159       H  0.66089928  0.34200779  0.94724391     0.18700
H3160       H  0.62197681  0.42865179  0.94489464     0.18700
C3161       C  0.50200703  0.41599864  0.94492377    -0.07100
C3162       C  0.47936236  0.42995747  0.95203259    -0.18200
C3163       C  0.45661240  0.42592691  0.93261194     0.10100
C3164       C  0.45620549  0.40737775  0.90585874    -0.07000
C3165       C  0.47830852  0.39248622  0.90011599    -0.18300
C3166       C  0.50153506  0.39753600  0.91780434     0.10100
S3167       S  0.42900622  0.44609908  0.94125961    -0.33200
S3168       S  0.53063440  0.38071110  0.90464121    -0.33200
H3169       H  0.51854464  0.36323669  0.88172817     0.28100
H3170       H  0.41085435  0.43100401  0.92277691     0.28100
H3171       H  0.47906573  0.44343410  0.97350355     0.18700
H3172       H  0.47828035  0.37908212  0.87853836     0.18700
C3173       C  0.51940758  0.42660598  0.64349822    -0.07100
C3174       C  0.53272906  0.42786233  0.67530472    -0.18200
C3175       C  0.51947564  0.43379684  0.70589582     0.10100
C3176       C  0.49232564  0.43793709  0.70419625    -0.07000
C3177       C  0.48001082  0.44050304  0.67191588    -0.18300
C3178       C  0.49330965  0.43534778  0.64132291     0.10100
S3179       S  0.53698824  0.43322618  0.74686456    -0.33200
S3180       S  0.47617505  0.43970769  0.60029646    -0.33200
H3181       H  0.45457431  0.45283527  0.61368930     0.28100
H3182       H  0.56197021  0.42948869  0.73305509     0.28100
H3183       H  0.55308734  0.42270428  0.67644994     0.18700
H3184       H  0.45935428  0.44451629  0.67093782     0.18700
C3185       C  0.59732864  0.33181388  0.58328892    -0.07100
C3186       C  0.62362172  0.33219745  0.59302348    -0.18200
C3187       C  0.63792587  0.30942064  0.59465213     0.10100
C3188       C  0.62549548  0.28588854  0.58663888    -0.07000
C3189       C  0.59871967  0.28540875  0.57995179    -0.18300
C3190       C  0.58450169  0.30809355  0.57852889     0.10100
S3191       S  0.67166684  0.31180035  0.60733973    -0.33200
S3192       S  0.55146811  0.30365721  0.06248964    -0.33200
H3193       H  0.54381671  0.32831143  0.58873632     0.28100
H3194       H  0.68046733  0.29056042  0.58844411     0.28100
H3195       H  0.63349149  0.35041530  0.59691839     0.18700
H3196       H  0.58883052  0.26721509  0.57582746     0.18700
C3197       C  0.48014220  0.35150007  0.54035467    -0.07100
C3198       C  0.47556858  0.34189518  0.57396221    -0.18200
C3199       C  0.45046484  0.33432022  0.58418320     0.10100
C3200       C  0.42948190  0.33618254  0.56018495    -0.07000
C3201       C  0.43447137  0.34430646  0.52605964    -0.18300
C3202       C  0.45955891  0.35163314  0.51587789     0.10100
S3203       S  0.44613082  0.32461027  0.62894199    -0.33200
S3204       S  0.46341784  0.36324982  0.97316596    -0.33200
H3205       H  0.43733422  0.36149521  0.96213402     0.28100
H3206       H  0.42219886  0.33715409  0.63317955     0.28100
H3207       H  0.49115033  0.34214629  0.59311310     0.18700
H3208       H  0.41783476  0.34456625  0.00912820     0.18700
C3209       C  0.62347500  0.60170444  0.78190762    -0.07100
C3210       C  0.61822395  0.59457843  0.81657292    -0.18200
C3211       C  0.63004616  0.60728565  0.84490812     0.10100
C3212       C  0.64714551  0.62817176  0.83881111    -0.07000
C3213       C  0.65476630  0.63316399  0.80428492    -0.18300
C3214       C  0.64350447  0.61992330  0.77597824     0.10100
S3215       S  0.61898566  0.59898976  0.88804362    -0.33200
S3216       S  0.65219714  0.63035484  0.73271016    -0.33200
H3217       H  0.64664378  0.60672957  0.71664129     0.28100
H3218       H  0.64237030  0.60556430  0.90496061     0.28100
H3219       H  0.60266319  0.58098742  0.82170347     0.18700
H3220       H  0.66759134  0.64928678  0.79904561     0.18700
C3221       C  0.49337082  0.58097982  0.79230639    -0.07100
C3222       C  0.49179012  0.60540681  0.80776404    -0.18200
C3223       C  0.47074807  0.61217061  0.82866543     0.10100
C3224       C  0.45143847  0.59377980  0.83622987    -0.07000
C3225       C  0.45175438  0.57019424  0.81836929    -0.18300
C3226       C  0.47242935  0.56364104  0.79647991     0.10100
S3227       S  0.47087747  0.64364647  0.84812379    -0.33200
S3228       S  0.47187005  0.53227066  0.77672247    -0.33200
H3229       H  0.49898990  0.52882479  0.77728206     0.28100
H3230       H  0.44373489  0.64495871  0.85198210     0.28100
H3231       H  0.50689941  0.61958708  0.80310735     0.18700
H3232       H  0.43733729  0.55564047  0.82463068     0.18700
C3233       C  0.49504174  0.59301789  0.54433715    -0.07100
C3234       C  0.51590659  0.57567664  0.54381047    -0.18200
C3235       C  0.53677679  0.57793220  0.56717392     0.10100
C3236       C  0.53710663  0.59787224  0.59199906    -0.07000
C3237       C  0.51748944  0.61635654  0.59091137    -0.18300
C3238       C  0.49663386  0.61433247  0.56744567     0.10100
S3239       S  0.56142360  0.55340958  0.56635461    -0.33200
S3240       S  0.47279235  0.63949059  0.56955179    -0.33200
H3241       H  0.47197123  0.64396270  0.53360185     0.28100
H3242       H  0.58027351  0.56739737  0.58518201     0.28100
H3243       H  0.51572813  0.55981966  0.52557065     0.18700
H3244       H  0.51721053  0.63132587  0.61052562     0.18700
C3245       C  0.56454611  0.48202108  0.59374753    -0.07100
C3246       C  0.54206920  0.48832943  0.61294883    -0.18200
C3247       C  0.54271190  0.50429217  0.64245624     0.10100
C3248       C  0.56629214  0.51616961  0.65328662    -0.07000
C3249       C  0.58894095  0.50985597  0.63441744    -0.18300
C3250       C  0.58842558  0.49288397  0.60551236     0.10100
S3251       S  0.51212897  0.50930431  0.66406375    -0.33200
S3252       S  0.61887177  0.48658195  0.58436587    -0.33200
H3253       H  0.60839494  0.48807514  0.55045407     0.28100
H3254       H  0.52197637  0.50199773  0.69693682     0.28100
H3255       H  0.52346891  0.48003339  0.60571032     0.18700
H3256       H  0.60723111  0.51887069  0.64158786     0.18700
C3257       C  0.86862678  0.60505685  0.72784767    -0.07100
C3258       C  0.86947745  0.59339937  0.69482069    -0.18200
C3259       C  0.85685788  0.60445551  0.66565797     0.10100
C3260       C  0.84414505  0.62838382  0.66897900    -0.07000
C3261       C  0.84087475  0.63833640  0.70265541    -0.18300
C3262       C  0.85250123  0.62676578  0.73193229     0.10100
S3263       S  0.86082174  0.58916741  0.62395269    -0.33200
S3264       S  0.84925373  0.64283912  0.77322221    -0.33200
H3265       H  0.85317488  0.62065566  0.79355241     0.28100
H3266       H  0.83706088  0.59781563  0.61010228     0.28100
H3267       H  0.88195754  0.57695257  0.69098240     0.18700
H3268       H  0.83130758  0.65668357  0.70578141     0.18700
C3269       C  0.99601962  0.58439681  0.70672455    -0.07100
C3270       C  0.99350278  0.60609834  0.68494342    -0.18200
C3271       C  0.01364501  0.61381376  0.66289703     0.10100
C3272       C  0.03643856  0.59911452  0.66111927    -0.07000
C3273       C  0.04009364  0.57923702  0.68540079    -0.18300
C3274       C  0.02000699  0.57124616  0.70734736     0.10100
S3275       S  0.00896587  0.64201063  0.63643948    -0.33200
S3276       S  0.02583595  0.54312844  0.73378010    -0.33200
H3277       H  0.00061923  0.53296398  0.72932206     0.28100
H3278       H  0.03547942  0.64843837  0.63644798     0.28100
H3279       H  0.97604824  0.61762051  0.68566353     0.18700
H3280       H  0.05767720  0.56828260  0.68494237     0.18700
C3281       C  0.95973105  0.58963886  0.91239184    -0.07100
C3282       C  0.95870009  0.56743545  0.93321889    -0.18200
C3283       C  0.97970580  0.56036344  0.95460576     0.10100
C3284       C  0.00214728  0.57612137  0.95566750    -0.07000
C3285       C  0.00230379  0.59923030  0.93644858    -0.18300
C3286       C  0.98121826  0.60626202  0.91536231     0.10100
S3287       S  0.97842075  0.53022366  0.97807542    -0.33200
S3288       S  0.98252545  0.63565883  0.89022196    -0.33200
H3289       H  0.00895996  0.64118180  0.89645848     0.28100
H3290       H  0.95755127  0.51151617  0.46099894     0.28100
H3291       H  0.94252373  0.55425741  0.92975687     0.18700
H3292       H  0.01875421  0.61220418  0.93854121     0.18700
C3293       C  0.88539269  0.38917178  0.53485894    -0.07100
C3294       C  0.86466970  0.37199604  0.52824748    -0.18200
C3295       C  0.85195909  0.35868396  0.55568458     0.10100
C3296       C  0.85996659  0.36247098  0.59077289    -0.07000
C3297       C  0.87843233  0.38188346  0.59742298    -0.18300
C3298       C  0.89091668  0.39525218  0.57022011     0.10100
S3299       S  0.82615615  0.33618449  0.54561657    -0.33200
S3300       S  0.91511911  0.41878399  0.58246936    -0.33200
H3301       H  0.91258530  0.43355833  0.55185668     0.28100
H3302       H  0.82574618  0.34041381  0.50936743     0.28100
H3303       H  0.85993594  0.36728967  0.50147198     0.18700
H3304       H  0.88476077  0.38537935  0.62400161     0.18700
C3305       C  0.01963925  0.40479974  0.53035253    -0.07100
C3306       C  0.02855574  0.38097284  0.54363170    -0.18200
C3307       C  0.04962127  0.37937763  0.56652838     0.10100
C3308       C  0.06173084  0.40209325  0.57762111    -0.07000
C3309       C  0.05597471  0.42515788  0.55982322    -0.18300
C3310       C  0.03486665  0.42686312  0.53669327     0.10100
S3311       S  0.05758228  0.34841352  0.58466155    -0.33200
S3312       S  0.02710867  0.45801896  0.51919639    -0.33200
H3313       H  0.00055841  0.45631067  0.52762311     0.28100
H3314       H  0.08443210  0.35352204  0.58683594     0.28100
H3315       H  0.01841920  0.36330743  0.53737749     0.18700
H3316       H  0.06555113  0.44273900  0.56761087     0.18700
C3317       C  0.97728146  0.40939022  0.83925928    -0.07100
C3318       C  0.00287385  0.41804061  0.84637486    -0.18200
C3319       C  0.02057366  0.42374342  0.81996854     0.10100
C3320       C  0.01296623  0.42085441  0.78492695    -0.07000
C3321       C  0.98675707  0.41448197  0.77747836    -0.18300
C3322       C  0.96882565  0.40896298  0.80423975     0.10100
S3323       S  0.05289172  0.43366200  0.83283521    -0.33200
S3324       S  0.93649694  0.39923426  0.79204125    -0.33200
H3325       H  0.92431721  0.41449344  0.81723281     0.28100
H3326       H  0.05823010  0.44763562  0.80222398     0.28100
H3327       H  0.00957041  0.41966432  0.87314456     0.18700
H3328       H  0.98060927  0.41207443  0.75060200     0.18700
C3329       C  0.89685000  0.32269272  0.93027774    -0.07100
C3330       C  0.88433506  0.31159566  0.95928420    -0.18200
C3331       C  0.87156089  0.28802537  0.95710565     0.10100
C3332       C  0.86999425  0.27543534  0.92463433    -0.07000
C3333       C  0.88152629  0.28703380  0.89521545    -0.18300
C3334       C  0.89530399  0.31016367  0.89775614     0.10100
S3335       S  0.85939158  0.27456418  0.99729591    -0.33200
S3336       S  0.91156466  0.32161033  0.85914027    -0.33200
H3337       H  0.93503402  0.32737520  0.87649790     0.28100
H3338       H  0.87049842  0.25025286  0.99188406     0.28100
H3339       H  0.88522772  0.32094762  0.98448646     0.18700
H3340       H  0.88052996  0.27761662  0.87010133     0.18700
C3341       C  0.93671129  0.47228883  0.89491940    -0.07100
C3342       C  0.94853585  0.47219408  0.86181543    -0.18200
C3343       C  0.94407372  0.49139829  0.83672599     0.10100
C3344       C  0.92812732  0.51260042  0.84474943    -0.07000
C3345       C  0.91589734  0.51256352  0.87791536    -0.18300
C3346       C  0.91985033  0.49270074  0.90273888     0.10100
S3347       S  0.95925617  0.48727031  0.79487872    -0.33200
S3348       S  0.90470321  0.49441793  0.94501561    -0.33200
H3349       H  0.89473139  0.51938526  0.94125133     0.28100
H3350       H  0.93792845  0.49686510  0.77581907     0.28100
H3351       H  0.96115139  0.45654997  0.85490078     0.18700
H3352       H  0.90387907  0.52867859  0.88509454     0.18700
C3353       C  0.01781892  0.33603828  0.94623746    -0.07100
C3354       C  0.03471787  0.33129674  0.97432192    -0.18200
C3355       C  0.06130832  0.32711323  0.96895297     0.10100
C3356       C  0.07133352  0.32830123  0.93462425    -0.07000
C3357       C  0.05357458  0.32968015  0.90656625    -0.18300
C3358       C  0.02707372  0.33322627  0.91205426     0.10100
S3359       S  0.07902655  0.31328102  0.50724002    -0.33200
S3360       S  0.00632019  0.33668579  0.87428858    -0.33200
H3361       H  0.98300592  0.33128506  0.89191621     0.28100
H3362       H  0.09338332  0.29447879  0.48959241     0.28100
H3363       H  0.02558606  0.32625441  0.50166313     0.18700
H3364       H  0.06036965  0.32907194  0.87988717     0.18700
C3365       C  0.02307916  0.63216362  0.80768311    -0.07100
C3366       C  0.02607408  0.65751610  0.79518274    -0.18200
C3367       C  0.04983245  0.67081389  0.79845014     0.10100
C3368       C  0.07107080  0.65868829  0.81499062    -0.07000
C3369       C  0.06782618  0.63371210  0.82814744    -0.18300
C3370       C  0.04447384  0.62025681  0.82433488     0.10100
S3371       S  0.05209858  0.70254979  0.77976343    -0.33200
S3372       S  0.04409491  0.58742539  0.83941146    -0.33200
H3373       H  0.03270200  0.57778701  0.80862283     0.28100
H3374       H  0.07815865  0.70046363  0.76921354     0.28100
H3375       H  0.00990871  0.66692576  0.78227008     0.18700
H3376       H  0.08396688  0.62429786  0.84104158     0.18700
C3377       C  0.14697806  0.62837361  0.90933196    -0.07100
C3378       C  0.15353378  0.63928590  0.94171868    -0.18200
C3379       C  0.14225435  0.63054214  0.97283937     0.10100
C3380       C  0.12420230  0.61005440  0.97196028    -0.07000
C3381       C  0.12042271  0.59690443  0.94029536    -0.18300
C3382       C  0.13177597  0.60569841  0.90911326     0.10100
S3383       S  0.15306190  0.63381188  0.51101339    -0.33200
S3384       S  0.12323639  0.58932046  0.86931979    -0.33200
H3385       H  0.14484904  0.59802930  0.85030311     0.28100
H3386       H  0.14832853  0.61152848  0.53079265     0.28100
H3387       H  0.16496395  0.65680797  0.94225383     0.18700
H3388       H  0.10643891  0.58127565  0.93915023     0.18700
C3389       C  0.11911608  0.77586794  0.81994299    -0.07100
C3390       C  0.10833087  0.78775300  0.84956105    -0.18200
C3391       C  0.09543394  0.81138000  0.84745246     0.10100
C3392       C  0.09320173  0.82406661  0.81496977    -0.07000
C3393       C  0.10413184  0.81229108  0.78539721    -0.18300
C3394       C  0.11655273  0.78838770  0.78736401     0.10100
S3395       S  0.08050140  0.82321431  0.88658048    -0.33200
S3396       S  0.12695998  0.77431175  0.74694217    -0.33200
H3397       H  0.11775983  0.74951519  0.75504119     0.28100
H3398       H  0.09660723  0.84511185  0.88803083     0.28100
H3399       H  0.10984106  0.77851911  0.87485349     0.18700
H3400       H  0.10243645  0.82148764  0.76010584     0.18700
C3401       C  0.34567190  0.62978113  0.59275765    -0.07100
C3402       C  0.33975306  0.64061259  0.56008130    -0.18200
C3403       C  0.35004088  0.63066338  0.52916578     0.10100
C3404       C  0.36696337  0.60937284  0.53041969    -0.07000
C3405       C  0.37000570  0.59640657  0.56242806    -0.18300
C3406       C  0.35904852  0.60608781  0.59341572     0.10100
S3407       S  0.34411129  0.64835352  0.48945177    -0.33200
S3408       S  0.36566818  0.58926914  0.63357322    -0.33200
H3409       H  0.34411219  0.59903081  0.65148189     0.28100
H3410       H  0.34954222  0.62659931  0.96449420     0.28100
H3411       H  0.32952410  0.65876007  0.55896380     0.18700
H3412       H  0.38295334  0.58008348  0.56395664     0.18700
C3413       C  0.42696770  0.66247248  0.68027572    -0.07100
C3414       C  0.44266206  0.66973889  0.70844979    -0.18200
C3415       C  0.46637574  0.65740977  0.71507963     0.10100
C3416       C  0.47430368  0.63659652  0.69359596    -0.07000
C3417       C  0.45871817  0.63012496  0.66470695    -0.18300
C3418       C  0.43549881  0.64295244  0.65775039     0.10100
S3419       S  0.48522453  0.66944492  0.75130690    -0.33200
S3420       S  0.41734876  0.63355293  0.61969158    -0.33200
H3421       H  0.41302555  0.65903213  0.60896360     0.28100
H3422       H  0.50831783  0.67121330  0.73190567     0.28100
H3423       H  0.43618020  0.68480151  0.72576524     0.18700
H3424       H  0.46439179  0.61469547  0.64748621     0.18700
C3425       C  0.26584045  0.67965412  0.72597685    -0.07100
C3426       C  0.25940935  0.65596803  0.74165200    -0.18200
C3427       C  0.24397539  0.65450851  0.77175939     0.10100
C3428       C  0.23504288  0.67723856  0.78779649    -0.07000
C3429       C  0.24243715  0.70092009  0.77311214    -0.18300
C3430       C  0.25685111  0.70236552  0.74215469     0.10100
S3431       S  0.23613845  0.62298409  0.78842736    -0.33200
S3432       S  0.26343402  0.73393750  0.72503049    -0.33200
H3433       H  0.25380659  0.72786451  0.69161592     0.28100
H3434       H  0.23096695  0.63093800  0.82271744     0.28100
H3435       H  0.26695209  0.63836690  0.73068639     0.18700
H3436       H  0.23516260  0.71855900  0.78427199     0.18700
C3437       C  0.37234496  0.78131226  0.66923523    -0.07100
C3438       C  0.39537348  0.78793438  0.65163293    -0.18200
C3439       C  0.40436904  0.81332551  0.65057012     0.10100
C3440       C  0.39041861  0.83261027  0.66810482    -0.07000
C3441       C  0.36665099  0.82633225  0.68361759    -0.18300
C3442       C  0.35728911  0.80115667  0.68410921     0.10100
S3443       S  0.43330983  0.81991115  0.62569267    -0.33200
S3444       S  0.32578961  0.79610737  0.70351458    -0.33200
H3445       H  0.31626457  0.78130354  0.67553672     0.28100
H3446       H  0.42809243  0.84601541  0.61975812     0.28100
H3447       H  0.40656771  0.77322942  0.63866888     0.18700
H3448       H  0.35563257  0.84107505  0.69650763     0.18700
C3449       C  0.01147086  0.86284862  0.55100733    -0.07100
C3450       C  0.02422931  0.85057310  0.52352894    -0.18200
C3451       C  0.04902654  0.84007522  0.52843220     0.10100
C3452       C  0.06171122  0.84303718  0.56106290    -0.07000
C3453       C  0.04842020  0.85463082  0.58859661    -0.18300
C3454       C  0.02337966  0.86390784  0.58414930     0.10100
S3455       S  0.06185942  0.82681599  0.99643756    -0.33200
S3456       S  0.00737558  0.87591189  0.62225853    -0.33200
H3457       H  0.98335840  0.86448641  0.61351084     0.28100
H3458       H  0.08332729  0.84266013  0.98871309     0.28100
H3459       H  0.01374835  0.85334729  0.00232753     0.18700
H3460       H  0.05752982  0.85638065  0.61405915     0.18700
C3461       C  0.10759906  0.88988777  0.71778485    -0.07100
C3462       C  0.12618295  0.87079576  0.72491245    -0.18200
C3463       C  0.13880770  0.85724232  0.69803048     0.10100
C3464       C  0.13298686  0.86244370  0.66239271    -0.07000
C3465       C  0.11633657  0.88330294  0.65531456    -0.18300
C3466       C  0.10370836  0.89694039  0.68233694     0.10100
S3467       S  0.16140345  0.83265282  0.71119378    -0.33200
S3468       S  0.08182102  0.92277667  0.67115441    -0.33200
H3469       H  0.08716531  0.92329318  0.63521675     0.28100
H3470       H  0.17715152  0.83489834  0.68143490     0.28100
H3471       H  0.12965805  0.86505311  0.75171577     0.18700
H3472       H  0.11158508  0.88769835  0.62842419     0.18700
C3473       C  0.16387888  0.71147426  0.71691535    -0.07100
C3474       C  0.15068772  0.70018082  0.68881261    -0.18200
C3475       C  0.15049948  0.71223589  0.65614793     0.10100
C3476       C  0.16336713  0.73605405  0.65187639    -0.07000
C3477       C  0.17848988  0.74601125  0.67847837    -0.18300
C3478       C  0.17859847  0.73465409  0.71119640     0.10100
S3479       S  0.13343881  0.69666386  0.62091095    -0.33200
S3480       S  0.19534901  0.75260994  0.74532242    -0.33200
H3481       H  0.20620391  0.77230063  0.72477371     0.28100
H3482       H  0.14773826  0.70868897  0.59425099     0.28100
H3483       H  0.14029595  0.68221219  0.69235839     0.18700
H3484       H  0.18789232  0.76445909  0.67451985     0.18700
C3485       C  0.15272186  0.78182726  0.97175006    -0.07100
C3486       C  0.16046570  0.75680979  0.98142650    -0.18200
C3487       C  0.17030734  0.73973240  0.95735117     0.10100
C3488       C  0.17196077  0.74740078  0.92245329    -0.07000
C3489       C  0.16741375  0.77333678  0.91341052    -0.18300
C3490       C  0.15756854  0.79065092  0.93778562     0.10100
S3491       S  0.17941128  0.70819378  0.97242748    -0.33200
S3492       S  0.14953500  0.82258570  0.92326429    -0.33200
H3493       H  0.12771312  0.82549062  0.94480748     0.28100
H3494       H  0.19676193  0.70327180  0.94502012     0.28100
H3495       H  0.15174350  0.74339800  0.50828014     0.18700
H3496       H  0.16887980  0.77951366  0.88646969     0.18700
C3497       C  0.07618186  0.73334769  0.57139255    -0.07100
C3498       C  0.07400298  0.72539653  0.53657445    -0.18200
C3499       C  0.07003749  0.69958047  0.52840805     0.10100
C3500       C  0.06734353  0.68156356  0.55561788    -0.07000
C3501       C  0.06681559  0.68991752  0.59028154    -0.18300
C3502       C  0.07069351  0.71578215  0.59840874     0.10100
S3503       S  0.07166388  0.69378028  0.98228201    -0.33200
S3504       S  0.07190256  0.72470160  0.64380457    -0.33200
H3505       H  0.06613250  0.75073855  0.63814315     0.28100
H3506       H  0.08681026  0.66823789  0.48928233     0.28100
H3507       H  0.07883934  0.73872269  0.51577458     0.18700
H3508       H  0.06450164  0.67612291  0.61117385     0.18700
C3509       C  0.42099417  0.84575987  0.94387570    -0.07100
C3510       C  0.42253084  0.86990307  0.95986837    -0.18200
C3511       C  0.44635101  0.88155324  0.96748646     0.10100
C3512       C  0.46994685  0.86918591  0.95884379    -0.07000
C3513       C  0.46859172  0.84490082  0.94312654    -0.18300
C3514       C  0.44460150  0.83327626  0.93504738     0.10100
S3515       S  0.43996977  0.92157249  0.45799097    -0.33200
S3516       S  0.44586660  0.80320542  0.91205021    -0.33200
H3517       H  0.42973743  0.81183310  0.88468433     0.28100
H3518       H  0.41353303  0.92295765  0.46704076     0.28100
H3519       H  0.39966667  0.88517531  0.44633182     0.18700
H3520       H  0.48638250  0.83524687  0.93588531     0.18700
C3521       C  0.34590589  0.87673227  0.84580438    -0.07100
C3522       C  0.33406681  0.87015165  0.81390312    -0.18200
C3523       C  0.34283132  0.88051631  0.78201096     0.10100
C3524       C  0.36459411  0.89727209  0.78136355    -0.07000
C3525       C  0.37468728  0.90581573  0.81347069    -0.18300
C3526       C  0.36540318  0.89603810  0.84543538     0.10100
S3527       S  0.32671254  0.87002167  0.74275459    -0.33200
S3528       S  0.38135769  0.90664384  0.88484658    -0.33200
H3529       H  0.36075850  0.90017664  0.90725392     0.28100
H3530       H  0.33547834  0.89036483  0.72161156     0.28100
H3531       H  0.31930886  0.85521717  0.81348162     0.18700
H3532       H  0.39143948  0.91853751  0.81363727     0.18700
C3533       C  0.34301107  0.71298202  0.78562886    -0.07100
C3534       C  0.32005820  0.71218052  0.80552186    -0.18200
C3535       C  0.31333110  0.73224781  0.82800669     0.10100
C3536       C  0.33055750  0.75317463  0.83267668    -0.07000
C3537       C  0.35451435  0.75287744  0.81492764    -0.18300
C3538       C  0.36081701  0.73320348  0.79157642     0.10100
S3539       S  0.28128831  0.73135307  0.84680882    -0.33200
S3540       S  0.39052347  0.73645862  0.76712827    -0.33200
H3541       H  0.39372988  0.71003213  0.76131127     0.28100
H3542       H  0.27740944  0.75806018  0.84498932     0.28100
H3543       H  0.30563262  0.69743674  0.80004409     0.18700
H3544       H  0.36851812  0.76820685  0.81910212     0.18700
C3545       C  0.33172116  0.79372528  0.53363757    -0.07100
C3546       C  0.35191509  0.77599355  0.53672049    -0.18200
C3547       C  0.34971971  0.75452467  0.55853942     0.10100
C3548       C  0.32707856  0.75097992  0.57916193    -0.07000
C3549       C  0.30804546  0.77026670  0.57853545    -0.18300
C3550       C  0.31012479  0.79141765  0.55603897     0.10100
S3551       S  0.37668852  0.73257706  0.55866386    -0.33200
S3552       S  0.28389394  0.81425734  0.55539454    -0.33200
H3553       H  0.30159246  0.83494125  0.04345910     0.28100
H3554       H  0.36163716  0.71224864  0.54505842     0.28100
H3555       H  0.36835599  0.77740673  0.51928393     0.18700
H3556       H  0.29123049  0.76870940  0.59534979     0.18700
C3557       C  0.25630139  0.82043561  0.97024602    -0.07100
C3558       C  0.24875988  0.79597624  0.98224689    -0.18200
C3559       C  0.22891313  0.79035829  0.50534280     0.10100
C3560       C  0.21611668  0.81174164  0.52064519    -0.07000
C3561       C  0.22257719  0.83631115  0.50766697    -0.18300
C3562       C  0.24478036  0.84200317  0.98667490     0.10100
S3563       S  0.22588260  0.75798974  0.52183839    -0.33200
S3564       S  0.25316671  0.87448199  0.97477316    -0.33200
H3565       H  0.25946879  0.86884033  0.93998736     0.28100
H3566       H  0.22372760  0.76546659  0.55695030     0.28100
H3567       H  0.25833537  0.77916519  0.97189502     0.18700
H3568       H  0.21283790  0.85298738  0.51809311     0.18700
C3569       C  0.37551563  0.72931145  0.93360857    -0.07100
C3570       C  0.36628583  0.70984369  0.91156989    -0.18200
C3571       C  0.37842409  0.68599484  0.91040028     0.10100
C3572       C  0.39988752  0.68123421  0.93257806    -0.07000
C3573       C  0.40925834  0.70099586  0.95429360    -0.18300
C3574       C  0.39753111  0.72507980  0.95478931     0.10100
S3575       S  0.36635093  0.66313123  0.87894284    -0.33200
S3576       S  0.41204622  0.74921785  0.98264936    -0.33200
H3577       H  0.39751521  0.77051995  0.97180431     0.28100
H3578       H  0.39098130  0.65315381  0.87092256     0.28100
H3579       H  0.34992582  0.71355585  0.89432167     0.18700
H3580       H  0.42565257  0.69756805  0.97155114     0.18700
C3581       C  0.56172288  0.85036131  0.68302088    -0.07100
C3582       C  0.53927048  0.83474805  0.68303913    -0.18200
C3583       C  0.51418737  0.84532479  0.68433042     0.10100
C3584       C  0.51112237  0.87226028  0.68498710    -0.07000
C3585       C  0.53331069  0.88792123  0.68384613    -0.18300
C3586       C  0.55835881  0.87746381  0.68366381     0.10100
S3587       S  0.48626147  0.82417279  0.68446458    -0.33200
S3588       S  0.58484055  0.90016655  0.68486673    -0.33200
H3589       H  0.59505985  0.89010158  0.71614052     0.28100
H3590       H  0.49952992  0.80167857  0.67511166     0.28100
H3591       H  0.54133391  0.81408133  0.68238758     0.18700
H3592       H  0.53116786  0.90860484  0.68490615     0.18700
C3593       C  0.64631857  0.79814358  0.78665467    -0.07100
C3594       C  0.66872077  0.80092112  0.80746971    -0.18200
C3595       C  0.67752872  0.78080329  0.82877152     0.10100
C3596       C  0.66356647  0.75730868  0.82943350    -0.07000
C3597       C  0.63983476  0.75569411  0.81104047    -0.18300
C3598       C  0.63065123  0.77622867  0.79108732     0.10100
S3599       S  0.70757634  0.78582960  0.85231439    -0.33200
S3600       S  0.59993087  0.77260510  0.76859517    -0.33200
H3601       H  0.59616626  0.79899060  0.76265688     0.28100
H3602       H  0.71545410  0.76002133  0.85175273     0.28100
H3603       H  0.68117940  0.81756054  0.80374571     0.18700
H3604       H  0.62781251  0.73859524  0.81303871     0.18700
C3605       C  0.65232976  0.74929969  0.58288449    -0.07100
C3606       C  0.62857987  0.74595795  0.56499832    -0.18200
C3607       C  0.62443946  0.72511619  0.54269381     0.10100
C3608       C  0.64473189  0.70767614  0.53677280    -0.07000
C3609       C  0.66756061  0.70967429  0.55708509    -0.18300
C3610       C  0.67185974  0.73059008  0.57923039     0.10100
S3611       S  0.59387472  0.72308906  0.51963550    -0.33200
S3612       S  0.70366923  0.73379136  0.59888129    -0.33200
H3613       H  0.70426347  0.76080443  0.59771501     0.28100
H3614       H  0.59424156  0.69618604  0.51659140     0.28100
H3615       H  0.61292947  0.75953170  0.56871296     0.18700
H3616       H  0.68365074  0.69686440  0.55188143     0.18700
C3617       C  0.63854158  0.87467575  0.59196994    -0.07100
C3618       C  0.62251901  0.89586404  0.59805853    -0.18200
C3619       C  0.60962450  0.90828188  0.57051180     0.10100
C3620       C  0.61323970  0.89969747  0.53585213    -0.07000
C3621       C  0.63356574  0.88237891  0.52953616    -0.18300
C3622       C  0.64537759  0.86893331  0.55723114     0.10100
S3623       S  0.58665480  0.93300786  0.58156784    -0.33200
S3624       S  0.66586065  0.84208430  0.54658921    -0.33200
H3625       H  0.67794015  0.84017867  0.57947864     0.28100
H3626       H  0.58627369  0.94446012  0.54827966     0.28100
H3627       H  0.61758945  0.90081981  0.62457170     0.18700
H3628       H  0.63742570  0.87628848  0.50307291     0.18700
C3629       C  0.58543567  0.67734263  0.69890907    -0.07100
C3630       C  0.57970416  0.68959913  0.66741310    -0.18200
C3631       C  0.58751940  0.71493339  0.66126909     0.10100
C3632       C  0.60260346  0.72818074  0.68674835    -0.07000
C3633       C  0.60805401  0.71560437  0.71852589    -0.18300
C3634       C  0.59898822  0.69076916  0.72524637     0.10100
S3635       S  0.57798142  0.72846693  0.61994881    -0.33200
S3636       S  0.60558988  0.67731799  0.76775172    -0.33200
H3637       H  0.58191777  0.66392093  0.77046961     0.28100
H3638       H  0.56532380  0.74945212  0.63533305     0.28100
H3639       H  0.56882520  0.67935861  0.64747950     0.18700
H3640       H  0.61956035  0.72508131  0.73846181     0.18700
C3641       C  0.92042791  0.82922057  0.82168221    -0.07100
C3642       C  0.92977172  0.82906180  0.78741451    -0.18200
C3643       C  0.95539599  0.83649257  0.77999515     0.10100
C3644       C  0.97194706  0.84454944  0.80742360    -0.07000
C3645       C  0.96290597  0.84339948  0.84186950    -0.18300
C3646       C  0.93736435  0.83592305  0.84925091     0.10100
S3647       S  0.96501177  0.83760927  0.73485737    -0.33200
S3648       S  0.92689855  0.83707518  0.89402959    -0.33200
H3649       H  0.90232278  0.84746898  0.88643991     0.28100
H3650       H  0.99154177  0.83315972  0.74114967     0.28100
H3651       H  0.91690386  0.82354300  0.76628649     0.18700
H3652       H  0.97522457  0.85027869  0.86293866     0.18700
C3653       C  0.84109166  0.86235214  0.91423948    -0.07100
C3654       C  0.85380679  0.88573085  0.90764774    -0.18200
C3655       C  0.86577871  0.89969645  0.93473655     0.10100
C3656       C  0.86535932  0.89013284  0.96939890    -0.07000
C3657       C  0.84955695  0.86861862  0.97649714    -0.18300
C3658       C  0.83756351  0.85463966  0.94929708     0.10100
S3659       S  0.88294823  0.92865535  0.92301474    -0.33200
S3660       S  0.81958540  0.82560804  0.95900876    -0.33200
H3661       H  0.82303598  0.82631060  0.99541461     0.28100
H3662       H  0.88165887  0.93987554  0.95629166     0.28100
H3663       H  0.85664941  0.89190681  0.88091577     0.18700
H3664       H  0.84879856  0.86119902  0.00288078     0.18700
C3665       C  0.82951001  0.75559520  0.66394749    -0.07100
C3666       C  0.85412334  0.76385545  0.67569543    -0.18200
C3667       C  0.85668444  0.78494960  0.69786432     0.10100
C3668       C  0.83423089  0.79640296  0.71113160    -0.07000
C3669       C  0.81018912  0.79116226  0.69471605    -0.18300
C3670       C  0.80752748  0.77067483  0.67141214     0.10100
S3671       S  0.88872932  0.79553768  0.71035694    -0.33200
S3672       S  0.77539973  0.76356227  0.65475556    -0.33200
H3673       H  0.77898816  0.73695833  0.65123792     0.28100
H3674       H  0.88120530  0.82095732  0.71724345     0.28100
H3675       H  0.87148216  0.75394504  0.66733098     0.18700
H3676       H  0.79276192  0.80053336  0.70400168     0.18700
C3677       C  0.82359503  0.73559892  0.91283817    -0.07100
C3678       C  0.84867017  0.73403823  0.92759286    -0.18200
C3679       C  0.85559704  0.71410687  0.95022370     0.10100
C3680       C  0.83656759  0.69649185  0.96120363    -0.07000
C3681       C  0.81240363  0.69620430  0.94355954    -0.18300
C3682       C  0.80594227  0.71521929  0.91889831     0.10100
S3683       S  0.88827225  0.71356209  0.96738537    -0.33200
S3684       S  0.77459682  0.71306743  0.89776829    -0.33200
H3685       H  0.77113837  0.73959818  0.89293947     0.28100
H3686       H  0.88820591  0.68704951  0.97448097     0.28100
H3687       H  0.86322839  0.74839375  0.92119806     0.18700
H3688       H  0.79749157  0.68269635  0.95170445     0.18700
C3689       C  0.75829417  0.81276689  0.77688186    -0.07100
C3690       C  0.75167801  0.83701808  0.76305975    -0.18200
C3691       C  0.73521768  0.83971425  0.73382587     0.10100
C3692       C  0.72421769  0.81780294  0.71763736    -0.07000
C3693       C  0.73122017  0.79352899  0.73076122    -0.18300
C3694       C  0.74788751  0.79074168  0.75979404     0.10100
S3695       S  0.72968092  0.87173720  0.71751772    -0.33200
S3696       S  0.75633748  0.75837227  0.77184290    -0.33200
H3697       H  0.74922419  0.76141679  0.80687899     0.28100
H3698       H  0.72517540  0.86426603  0.68275217     0.28100
H3699       H  0.76021473  0.85415993  0.77437969     0.18700
H3700       H  0.72274204  0.77643512  0.71922015     0.18700
C3701       C  0.87890353  0.72036737  0.81880253    -0.07100
C3702       C  0.87876758  0.70293474  0.84677832    -0.18200
C3703       C  0.89341554  0.68063811  0.84591611     0.10100
C3704       C  0.90778761  0.67497438  0.81583533    -0.07000
C3705       C  0.90879155  0.69275422  0.78826733    -0.18300
C3706       C  0.89476010  0.71563396  0.78969890     0.10100
S3707       S  0.89338875  0.66042125  0.88417954    -0.33200
S3708       S  0.89838631  0.73804580  0.75428173    -0.33200
H3709       H  0.89662238  0.76017782  0.77508048     0.28100
H3710       H  0.91916130  0.65206222  0.88003002     0.28100
H3711       H  0.86718436  0.70675400  0.86966984     0.18700
H3712       H  0.91995819  0.68847031  0.76511446     0.18700
loop_ 
_geom_bond_atom_site_label_1 
_geom_bond_atom_site_label_2 
_geom_bond_distance 
_geom_bond_site_symmetry_2 
_ccdc_geom_bond_type 
O1          Cr19   2.009       .  S
O1            C9   1.263       .  A
O2          Cr19   1.990       .  S
O2            C3   1.270       .  A
C3            O4   1.269       .  A
C3         C1833   1.507       .  S
O4          Cr20   2.017       .  S
O5          Cr20   2.012       .  S
O5            C6   1.271       .  A
C6            O7   1.265       .  A
C6         C1797   1.488       .  S
O7          Cr21   1.998       .  S
O8          Cr21   1.964       .  S
O8            C9   1.260       .  A
C9         C1821   1.479       .  S
O10         Cr19   1.987       .  S
O10          C18   1.260       .  A
O11         Cr19   1.963       .  S
O11          C12   1.255       .  A
C12          O13   1.267       .  A
C12        C1812   1.469       .  S
O13         Cr20   2.011       .  S
O14         Cr20   2.003       .  S
O14          C15   1.264       .  A
C15          O16   1.256       .  A
C15        C1785   1.489       .  S
O16         Cr21   1.980       .  S
O17         Cr21   1.980       .  S
O17          C18   1.257       .  A
C18        C1845   1.460       .  S
Cr19         O22   1.783       .  S
Cr20         O22   1.778       .  S
Cr21         O22   1.775       .  S
O23         Cr41   2.010       .  S
O23          C31   1.265       .  A
O24         Cr41   1.989       .  S
O24          C25   1.269       .  A
C25          O26   1.265       .  A
C25        C1836   1.503       .  S
O26         Cr42   2.012       .  S
O27         Cr42   2.012       .  S
O27          C28   1.272       .  A
C28          O29   1.268       .  A
C28        C1761   1.487       .  S
O29         Cr43   2.003       .  S
O30         Cr43   1.962       .  S
O30          C31   1.258       .  A
C31        C1749   1.478       .  S
O32         Cr41   1.970       .  S
O32          C40   1.258       .  A
O33         Cr41   1.968       .  S
O33          C34   1.258       .  A
C34          O35   1.270       .  A
C34        C1737   1.461       .  S
O35         Cr42   2.011       .  S
O36         Cr42   2.011       .  S
O36          C37   1.262       .  A
C37          O38   1.259       .  A
C37        C1725   1.500       .  S
O38         Cr43   1.986       .  S
O39         Cr43   2.001       .  S
O39          C40   1.261       .  A
C40        C1776   1.488       .  S
Cr41         O44   1.782       .  S
Cr42         O44   1.781       .  S
Cr43         O44   1.775       .  S
O45         Cr63   1.969       .  S
O45          C53   1.261       .  A
O46         Cr63   1.998       .  S
O46          C47   1.266       .  A
C47          O48   1.275       .  A
C47        C1665   1.489       .  S
O48         Cr64   2.021       .  S
O49         Cr64   2.024       .  S
O49          C50   1.267       .  A
C50          O51   1.271       .  A
C50        C1701   1.508       .  S
O51         Cr65   1.993       .  S
O52         Cr65   2.007       .  S
O52          C53   1.265       .  A
C53        C1680   1.487       .  S
O54         Cr63   1.984       .  S
O54          C62   1.258       .  A
O55         Cr63   1.977       .  S
O55          C56   1.254       .  A
C56          O57   1.264       .  A
C56        C1653   1.498       .  S
O57         Cr64   2.012       .  S
O58       Cr1920   2.020       .  S
O58          C59   1.271   1_556  A
C59        O1916   1.256   1_554  A
C59        C1689   1.466       .  S
O60         Cr65   1.974       .  S
O60        C1915   1.255       .  A
O61         Cr65   1.985       .  S
O61          C62   1.260       .  A
C62        C1713   1.461       .  S
Cr63         O66   1.777       .  S
Cr64       O1914   2.017       .  S
Cr64         O66   1.783       .  S
Cr65         O66   1.786       .  S
O67         Cr85   2.007       .  S
O67          C75   1.270       .  A
O68         Cr85   1.960       .  S
O68          C69   1.260       .  A
C69          O70   1.285       .  A
C69        C1608   1.504       .  S
O70         Cr86   2.073       .  S
O71         Cr86   2.020       .  S
O71          C72   1.277       .  A
C72          O73   1.267       .  A
C72        C1704   1.520       .  S
O73         Cr87   2.019       .  S
O74         Cr87   1.969       .  S
O74          C75   1.266       .  A
C75        C1620   1.459       .  S
O76         Cr85   2.003       .  S
O76          C84   1.259       .  A
O77         Cr85   2.001       .  S
O77          C78   1.263       .  A
C78          O79   1.258       .  A
C78        C1596   1.479       .  S
O79         Cr86   1.986       .  S
O80         Cr86   2.050       .  S
O80        C1937   1.266   1_554  A
C81        O1936   1.265       .  A
C81        O1938   1.237       .  A
C81        C1629   1.478       .  S
O82         Cr87   1.945       .  S
O82        C1937   1.239   1_554  A
O83         Cr87   1.973       .  S
O83          C84   1.253       .  A
C84        C1641   1.464       .  S
Cr85         O88   1.764       .  S
Cr86         O88   1.794       .  S
Cr87         O88   1.748       .  S
O89        Cr107   2.007       .  S
O89          C97   1.262       .  A
O90        Cr107   1.986       .  S
O90          C91   1.268       .  A
C91          O92   1.264       .  A
C91        C1569   1.492       .  S
O92        Cr108   1.997       .  S
O93        Cr108   2.020       .  S
O93          C94   1.274       .  A
C94          O95   1.265       .  A
C94        C1545   1.488       .  S
O95        Cr109   1.991       .  S
O96        Cr109   1.963       .  S
O96          C97   1.255       .  A
C97        C1692   1.486       .  S
O98        Cr107   1.975       .  S
O98         C106   1.258       .  A
O99        Cr107   1.964       .  S
O99         C100   1.253       .  A
C100        O101   1.273       .  A
C100       C1677   1.474       .  S
O101       Cr108   2.031       .  S
O102       Cr108   1.993       .  S
O102        C103   1.258       .  A
C103        O104   1.253       .  A
C103       C1557   1.459       .  S
O104       Cr109   1.974       .  S
O105       Cr109   1.987       .  S
O105        C106   1.262       .  A
C106       C1581   1.482       .  S
Cr107       O110   1.783       .  S
Cr108       O110   1.780       .  S
Cr109       O110   1.768       .  S
O111       Cr129   1.968       .  S
O111        C119   1.253       .  A
O112       Cr129   1.990       .  S
O112        C113   1.270       .  A
C113        O114   1.263       .  A
C113       C1572   1.486       .  S
O114       Cr130   1.996       .  S
O115       Cr130   2.031       .  S
O115        C116   1.276       .  A
C116        O117   1.261       .  A
C116       C1521   1.486       .  S
O117       Cr131   1.977       .  S
O118       Cr131   1.975       .  S
O118        C119   1.260       .  A
C119       C1632   1.470       .  S
O120       Cr129   2.002       .  S
O120        C128   1.268       .  A
O121       Cr129   1.944       .  S
O121        C122   1.239       .  A
C122        O123   1.277       .  A
C122       C1617   1.486       .  S
O123       Cr130   2.055       .  S
O124       Cr130   1.992       .  S
O124        C125   1.258       .  A
C125        O126   1.261       .  A
C125       C1512   1.477       .  S
O126       Cr131   1.995       .  S
O127       Cr131   1.989       .  S
O127        C128   1.261       .  A
C128       C1533   1.487       .  S
Cr129       O132   1.785       .  S
Cr130       O132   1.781       .  S
Cr131       O132   1.776       .  S
O133      Cr2007   1.966   1_554  S
O133        C141   1.262       .  A
O134      Cr2007   1.961   1_554  S
O134        C135   1.258       .  A
C135       O1992   1.289   1_554  A
C135       C1437   1.514       .  S
O136       Cr152   2.084       .  S
O136       C1991   1.286       .  A
O137       Cr152   1.990       .  S
O137        C138   1.269       .  A
C138        O139   1.274       .  A
C138       C1485   1.515       .  S
O139       Cr153   2.034       .  S
O140       Cr153   1.984       .  S
O140       C1997   1.268       .  A
C141       O1996   1.267   1_554  A
C141       C1449   1.474   1_655  S
O142       Cr151   1.997       .  S
O142        C150   1.262       .  A
O143       Cr151   1.973       .  S
O143        C144   1.257       .  A
C144        O145   1.260       .  A
C144       C1473   1.467       .  S
O145       Cr152   1.983       .  S
O146       Cr152   2.075       .  S
O146        C147   1.272       .  A
C147        O148   1.242       .  A
C147       C1461   1.487       .  S
O148       Cr153   1.940       .  S
O149       Cr153   1.981   1_455  S
O149        C150   1.259   1_455  A
C150       C1497   1.461   1_655  S
Cr151      O1989   1.973       .  S
Cr151      O1990   1.962       .  S
Cr151       O154   1.764       .  S
Cr152       O154   1.790       .  S
Cr153       O154   1.759       .  S
O155       Cr173   1.953       .  S
O155        C163   1.254       .  A
O156       Cr173   1.994       .  S
O156        C157   1.264       .  A
C157        O158   1.277       .  A
C157       C1401   1.495       .  S
O158       Cr174   2.034       .  S
O159       Cr174   2.015       .  S
O159        C160   1.267       .  A
C160        O161   1.271       .  A
C160       C1488   1.517       .  S
O161       Cr175   1.992       .  S
O162       Cr175   2.003       .  S
O162        C163   1.264       .  A
C163       C1413   1.473       .  S
O164       Cr173   2.010       .  S
O164        C172   1.264       .  A
O165       Cr173   1.963       .  S
O165        C166   1.256       .  A
C166        O167   1.261       .  A
C166       C1848   1.463       .  S
O167       Cr174   1.994       .  S
O168       Cr174   2.017       .  S
O168        C169   1.270       .  A
C169        O170   1.254       .  A
C169       C1425   1.465       .  S
O170       Cr175   1.967       .  S
O171       Cr175   1.993       .  S
O171        C172   1.261       .  A
C172       C1509   1.504   1_655  S
Cr173       O176   1.775       .  S
Cr174       O176   1.779       .  S
Cr175       O176   1.781       .  S
O177       Cr195   1.961       .  S
O177        C185   1.258       .  A
O178       Cr195   1.993       .  S
O178        C179   1.264       .  A
C179        O180   1.274       .  A
C179       C1353   1.491       .  S
O180       Cr196   2.019       .  S
O181       Cr196   2.040       .  S
O181        C182   1.275       .  A
C182        O183   1.272       .  A
C182       C1392   1.522       .  S
O183       Cr197   1.989       .  S
O184       Cr197   2.014       .  S
O184        C185   1.263       .  A
C185       C1365   1.485       .  S
O186       Cr195   1.993       .  S
O186        C194   1.258       .  A
O187       Cr195   1.963       .  S
O187        C188   1.252       .  A
C188        O189   1.264       .  A
C188       C1773   1.462       .  S
O189       Cr196   2.009       .  S
O190       Cr196   2.011       .  S
O190        C191   1.265       .  A
C191        O192   1.252       .  A
C191       C1380   1.461       .  S
O192       Cr197   1.973       .  S
O193       Cr197   1.985       .  S
O193        C194   1.264       .  A
C194       C1560   1.485       .  S
Cr195       O198   1.774       .  S
Cr196       O198   1.780       .  S
Cr197       O198   1.780       .  S
O199      Cr2073   1.965       .  S
O199        C207   1.260       .  A
O200      Cr2073   1.966       .  S
O200        C201   1.262       .  A
C201       O2058   1.282       .  A
C201       C1296   1.493       .  S
O202       Cr218   2.058       .  S
O202       C2057   1.282   1_554  A
O203       Cr218   2.006       .  S
O203        C204   1.271       .  A
C204        O205   1.267       .  A
C204       C1389   1.523       .  S
O205       Cr219   2.017       .  S
O206       Cr219   1.982   1_556  S
O206       C2063   1.267       .  A
C207       O2062   1.266       .  A
C207       C1305   1.467       .  S
O208       Cr217   2.017       .  S
O208        C216   1.266       .  A
O209       Cr217   1.965       .  S
O209        C210   1.253       .  A
C210        O211   1.259       .  A
C210       C1329   1.470       .  S
O211       Cr218   2.000       .  S
O212       Cr218   2.026       .  S
O212        C213   1.270       .  A
C213        O214   1.247       .  A
C213       C1317   1.464       .  S
O214       Cr219   1.935       .  S
O215       Cr219   2.004       .  S
O215        C216   1.260       .  A
C216       C1341   1.486       .  S
Cr217      O2055   1.962   1_554  S
Cr217      O2056   1.971   1_554  S
Cr217       O220   1.765       .  S
Cr218       O220   1.794       .  S
Cr219       O220   1.771       .  S
O221       Cr239   2.007       .  S
O221        C229   1.259       .  A
O222       Cr239   1.983       .  S
O222        C223   1.269       .  A
C223        O224   1.265       .  A
C223       C1281   1.493       .  S
O224       Cr240   2.009       .  S
O225       Cr240   2.024       .  S
O225        C226   1.272       .  A
C226        O227   1.259       .  A
C226       C1245   1.483       .  S
O227       Cr241   1.978       .  S
O228       Cr241   1.958       .  S
O228        C229   1.250       .  A
C229       C1269   1.484       .  S
O230       Cr239   1.974       .  S
O230        C238   1.260       .  A
O231       Cr239   1.956       .  S
O231       C2088   1.254       .  A
C232        O233   1.275   1_554  A
C232       O2087   1.256   1_554  A
C232       C1257   1.492       .  S
O233      Cr2096   2.024       .  S
O234       Cr240   2.020       .  S
O234        C235   1.268       .  A
C235        O236   1.256       .  A
C235       C1233   1.493       .  S
O236       Cr241   1.973       .  S
O237       Cr241   1.976       .  S
O237        C238   1.258       .  A
C238       C1476   1.471       .  S
Cr239       O242   1.787       .  S
Cr240      O2089   2.027       .  S
Cr240       O242   1.771       .  S
Cr241       O242   1.767       .  S
O243       Cr261   2.006       .  S
O243        C251   1.261       .  A
O244       Cr261   1.990       .  S
O244        C245   1.270       .  A
C245        O246   1.266       .  A
C245       C1284   1.502       .  S
O246       Cr262   2.012       .  S
O247       Cr262   2.020       .  S
O247        C248   1.274       .  A
C248        O249   1.265       .  A
C248       C1224   1.492       .  S
O249       Cr263   1.996       .  S
O250       Cr263   1.961       .  S
O250        C251   1.258       .  A
C251       C1212   1.481       .  S
O252       Cr261   1.990       .  S
O252        C260   1.263       .  A
O253       Cr261   1.972       .  S
O253       C2110   1.252       .  A
C254       O2109   1.252       .  A
C254       O2111   1.264       .  A
C254       C1197   1.459       .  S
O255       Cr262   2.012       .  S
O255       C2110   1.266       .  A
O256       Cr262   1.993       .  S
O256        C257   1.260       .  A
C257        O258   1.254       .  A
C257       C1185   1.465       .  S
O258       Cr263   1.973       .  S
O259       Cr263   1.983       .  S
O259        C260   1.258       .  A
C260       C1332   1.464       .  S
Cr261       O264   1.792       .  S
Cr262       O264   1.783       .  S
Cr263       O264   1.779       .  S
O265      Cr2139   1.942   1_554  S
O265        C273   1.248       .  A
O266      Cr2139   1.944   1_554  S
O266        C267   1.258   1_554  A
C267       O2124   1.291       .  A
C267       C1125   1.505   1_556  S
O268       Cr284   2.092       .  S
O268       C2123   1.289       .  A
O269       Cr284   1.996       .  S
O269        C270   1.271       .  A
C270        O271   1.270       .  A
C270       C1149   1.499       .  S
O271       Cr285   2.022       .  S
O272       Cr285   1.989       .  S
O272       C2129   1.269       .  A
C273       O2128   1.267   1_554  A
C273       C1161   1.474       .  S
O274       Cr283   2.022       .  S
O274        C282   1.271       .  A
O275       Cr283   1.966       .  S
O275        C276   1.252       .  A
C276        O277   1.260       .  A
C276       C1140   1.485       .  S
O277       Cr284   2.012       .  S
O278       Cr284   2.055       .  S
O278        C279   1.269       .  A
C279        O280   1.242       .  A
C279       C1176   1.482       .  S
O280       Cr285   1.937       .  S
O281       Cr285   1.980       .  S
O281        C282   1.260       .  A
C282       C1236   1.489   1_455  S
Cr283      O2121   1.937       .  S
Cr283      O2122   1.960       .  S
Cr283       O286   1.766       .  S
Cr284       O286   1.791       .  S
Cr285       O286   1.764       .  S
O287       Cr305   1.952       .  S
O287        C295   1.253       .  A
O288       Cr305   1.963       .  S
O288        C289   1.261       .  A
C289        O290   1.285       .  A
C289       C1605   1.498       .  S
O290       Cr306   2.071       .  S
O291       Cr306   2.011       .  S
O291        C292   1.270       .  A
C292        O293   1.268       .  A
C292       C1152   1.509       .  S
O293       Cr307   2.026       .  S
O294       Cr307   2.002       .  S
O294        C295   1.273       .  A
C295       C1101   1.478   1_455  S
O296       Cr305   2.019       .  S
O296        C304   1.269   1_455  A
O297       Cr305   1.963       .  S
O297        C298   1.253       .  A
C298        O299   1.265       .  A
C298       C1536   1.496       .  S
O299       Cr306   2.017       .  S
O300       Cr306   2.061       .  S
O300        C301   1.274       .  A
C301        O302   1.244       .  A
C301       C1113   1.480       .  S
O302       Cr307   1.935       .  S
O303       Cr307   1.970   1_655  S
O303        C304   1.259       .  A
C304       C1788   1.489       .  S
Cr305       O308   1.765       .  S
Cr306       O308   1.793       .  S
Cr307       O308   1.768       .  S
O309       Cr327   2.007       .  S
O309        C317   1.270       .  A
O310       Cr327   2.009       .  S
O310        C311   1.270       .  A
C311        O312   1.272       .  A
C311       C1053   1.507       .  S
O312       Cr328   2.001       .  S
O313       Cr328   2.064       .  S
O313        C314   1.281       .  A
C314        O315   1.260       .  A
C314       C1068   1.497       .  S
O315       Cr329   1.958       .  S
O316       Cr329   1.938       .  S
O316        C317   1.250       .  A
C317       C1089   1.485       .  S
O318       Cr327   1.994       .  S
O318        C326   1.264       .  A
O319       Cr327   1.947       .  S
O319       C2176   1.257       .  A
C320        O321   1.260       .  A
C320       O2175   1.256       .  A
C320       C1077   1.466   1_556  S
O321      Cr2184   2.001       .  S
O322       Cr328   2.007       .  S
O322        C323   1.256       .  A
C323        O324   1.250       .  A
C323       C1500   1.490       .  S
O324       Cr329   1.966       .  S
O325       Cr329   1.993       .  S
O325        C326   1.265       .  A
C326       C1137   1.468       .  S
Cr327       O330   1.771       .  S
Cr328      O2177   2.009       .  S
Cr328       O330   1.789       .  S
Cr329       O330   1.768       .  S
O331       Cr349   1.990       .  S
O331        C339   1.258       .  A
O332       Cr349   1.982       .  S
O332        C333   1.266       .  A
C333        O334   1.270       .  A
C333       C1056   1.516       .  S
O334       Cr350   2.033       .  S
O335       Cr350   2.018       .  S
O335        C336   1.272       .  A
C336        O337   1.266       .  A
C336       C1005   1.494       .  S
O337       Cr351   2.004       .  S
O338       Cr351   1.966       .  S
O338        C339   1.259       .  A
C339       C1029   1.478       .  S
O340       Cr349   1.976       .  S
O340        C348   1.261       .  A
O341       Cr349   1.970       .  S
O341       C2198   1.256   1_554  A
C342       O2197   1.255       .  A
C342       O2199   1.267       .  A
C342       C1017   1.473       .  S
O343       Cr350   2.006       .  S
O343       C2198   1.267   1_554  A
O344       Cr350   2.019       .  S
O344        C345   1.268       .  A
C345        O346   1.255       .  A
C345       C1344   1.487       .  S
O346       Cr351   1.976       .  S
O347       Cr351   1.995       .  S
O347        C348   1.263       .  A
C348       C1041   1.484       .  S
Cr349       O352   1.786       .  S
Cr350       O352   1.783       .  S
Cr351       O352   1.781       .  S
O353       Cr371   2.003       .  S
O353       C2217   1.258   1_554  A
O354       Cr371   2.001       .  S
O354        C355   1.274       .  A
C355        O356   1.271       .  A
C355        C984   1.499       .  S
O356       Cr372   2.016       .  S
O357       Cr372   2.013       .  S
O357        C358   1.270   1_554  A
C358       O2215   1.262       .  A
C358       C3380   1.483       .  S
O359      Cr2229   2.000       .  S
O359       C2214   1.266       .  A
O360      Cr2229   1.954       .  S
O360        C361   1.253       .  A
C361       O2209   1.262       .  A
C361       C1428   1.483   1_455  S
O362       Cr371   1.989       .  S
O362        C370   1.266   1_455  A
O363       Cr371   1.963       .  S
O363        C364   1.252       .  A
C364        O365   1.266       .  A
C364       C1416   1.466       .  S
O365       Cr372   2.014       .  S
O366       Cr372   2.011       .  S
O366        C367   1.265       .  A
C367        O368   1.253       .  A
C367       C1644   1.471       .  S
O368       Cr373   1.964       .  S
O369       Cr373   1.998       .  S
O369        C370   1.260   1_455  A
C370        C996   1.490       .  S
Cr371       O374   1.784       .  S
Cr372       O374   1.773       .  S
Cr373      O2215   1.986   1_554  S
Cr373      O2216   1.956   1_554  S
Cr373       O374   1.775       .  S
O375       Cr393   2.003       .  S
O375        C383   1.261       .  A
O376       Cr393   2.005       .  S
O376        C377   1.272       .  A
C377        O378   1.263       .  A
C377        C981   1.501       .  S
O378       Cr394   2.001       .  S
O379       Cr394   2.017       .  S
O379        C380   1.272       .  A
C380        O381   1.264       .  A
C380       C1065   1.484       .  S
O381       Cr395   1.987       .  S
O382       Cr395   1.975       .  S
O382        C383   1.260       .  A
C383       C1464   1.480       .  S
O384       Cr393   1.983       .  S
O384        C392   1.261       .  A
O385       Cr393   1.960       .  S
O385        C386   1.256       .  A
C386        O387   1.273       .  A
C386       C1452   1.473       .  S
O387       Cr394   2.011       .  S
O388       Cr394   2.017       .  S
O388        C389   1.265       .  A
C389        O390   1.260       .  A
C389        C960   1.506       .  S
O390       Cr395   1.997       .  S
O391       Cr395   1.980       .  S
O391        C392   1.261       .  A
C392        C972   1.485   1_455  S
Cr393       O396   1.792       .  S
Cr394       O396   1.783       .  S
Cr395       O396   1.778       .  S
O397       Cr415   1.984       .  S
O397       C2261   1.256   1_554  A
O398       Cr415   2.003       .  S
O398        C399   1.267       .  A
C399        O400   1.266       .  A
C399        C945   1.503       .  S
O400       Cr416   1.998       .  S
O401       Cr416   2.061       .  S
O401        C402   1.285   1_554  A
C402       O2259   1.268       .  A
C402       C3656   1.498       .  S
O403      Cr2273   1.967       .  S
O403       C2258   1.263       .  A
O404      Cr2273   1.975       .  S
O404        C405   1.259       .  A
C405       O2253   1.261       .  A
C405       C1116   1.463       .  S
O406       Cr415   2.019       .  S
O406        C414   1.273       .  A
O407       Cr415   1.921       .  S
O407        C408   1.247       .  A
C408        O409   1.268       .  A
C408       C1104   1.460       .  S
O409       Cr416   2.007       .  S
O410       Cr416   2.007       .  S
O410        C411   1.257       .  A
C411        O412   1.250       .  A
C411        C933   1.490       .  S
O412       Cr417   1.979       .  S
O413       Cr417   1.984       .  S
O413        C414   1.270       .  A
C414       C1593   1.477   1_655  S
Cr415       O418   1.792       .  S
Cr416       O418   1.787       .  S
Cr417      O2259   1.971   1_554  S
Cr417      O2260   1.961   1_554  S
Cr417       O418   1.782       .  S
O419       Cr437   1.973       .  S
O419        C427   1.259       .  A
O420       Cr437   2.029       .  S
O420        C421   1.270       .  A
C421        O422   1.266       .  A
C421        C948   1.505       .  S
O422       Cr438   1.998       .  S
O423       Cr438   2.055       .  S
O423        C424   1.281       .  A
C424        O425   1.263       .  A
C424       C1248   1.501       .  S
O425       Cr439   1.967       .  S
O426       Cr439   1.995       .  S
O426        C427   1.265       .  A
C427       C1173   1.462       .  S
O428       Cr437   2.027       .  S
O428        C436   1.268   1_655  A
O429       Cr437   1.915       .  S
O429        C430   1.246       .  A
C430        O431   1.266       .  A
C430       C1164   1.447       .  S
O431       Cr438   2.015       .  S
O432       Cr438   1.977       .  S
O432        C433   1.253       .  A
C433        O434   1.260       .  A
C433        C909   1.497       .  S
O434       Cr439   2.005       .  S
O435       Cr439   1.980       .  S
O435        C436   1.259   1_655  A
C436        C924   1.478       .  S
Cr437       O440   1.779       .  S
Cr438       O440   1.777       .  S
Cr439       O440   1.773       .  S
O441       Cr459   1.964       .  S
O441        C449   1.259       .  A
O442       Cr459   2.009       .  S
O442        C443   1.268       .  A
C443        O444   1.274       .  A
C443       C1404   1.499       .  S
O444       Cr460   2.021       .  S
O445       Cr460   2.003       .  S
O445        C446   1.263       .  A
C446        O447   1.267       .  A
C446        C897   1.500       .  S
O447       Cr461   1.984       .  S
O448       Cr461   1.994       .  S
O448        C449   1.261       .  A
C449       C1809   1.468       .  S
O450       Cr459   2.007       .  S
O450        C458   1.264       .  A
O451       Cr459   1.978       .  S
O451        C452   1.256       .  A
C452        O453   1.260       .  A
C452        C993   1.465       .  S
O453       Cr460   2.001       .  S
O454       Cr460   2.019       .  S
O454       C2311   1.272   1_554  A
C455       O2310   1.269       .  A
C455       O2312   1.255       .  A
C455       C1824   1.464       .  S
O456       Cr461   1.969       .  S
O456       C2311   1.257   1_554  A
O457       Cr461   1.980       .  S
O457        C458   1.259       .  A
C458        C936   1.497       .  S
Cr459       O462   1.780       .  S
Cr460       O462   1.789       .  S
Cr461       O462   1.786       .  S
O463       Cr481   1.959       .  S
O463        C471   1.256       .  A
O464       Cr481   2.001       .  S
O464        C465   1.267       .  A
C465        O466   1.271       .  A
C465       C1356   1.492       .  S
O466       Cr482   2.011       .  S
O467       Cr482   2.021       .  S
O467        C468   1.272       .  A
C468        O469   1.271       .  A
C468        C900   1.505       .  S
O469       Cr483   1.989       .  S
O470       Cr483   2.010       .  S
O470        C471   1.261       .  A
C471       C1740   1.479       .  S
O472       Cr481   2.009       .  S
O472        C480   1.263       .  A
O473       Cr481   1.961       .  S
O473        C474   1.252       .  A
C474        O475   1.263       .  A
C474        C876   1.461       .  S
O475       Cr482   2.010       .  S
O476      Cr2338   2.017       .  S
O476        C477   1.267       .  A
C477       O2334   1.252       .  A
C477       C1752   1.470   1_556  S
O478       Cr483   1.958       .  S
O478       C2333   1.251       .  A
O479       Cr483   1.982       .  S
O479        C480   1.263       .  A
C480        C885   1.494       .  S
Cr481       O484   1.770       .  S
Cr482      O2332   2.017       .  S
Cr482       O484   1.781       .  S
Cr483       O484   1.783       .  S
O485       Cr503   1.956       .  S
O485        C493   1.254       .  A
O486       Cr503   2.009       .  S
O486        C487   1.268       .  A
C487        O488   1.273       .  A
C487       C1668   1.488       .  S
O488       Cr504   2.017       .  S
O489       Cr504   2.011       .  S
O489        C490   1.265       .  A
C490        O491   1.266       .  A
C490        C837   1.508       .  S
O491       Cr505   1.983       .  S
O492       Cr505   1.982       .  S
O492        C493   1.260       .  A
C493        C852   1.457       .  S
O494       Cr503   1.994       .  S
O494        C502   1.261       .  A
O495       Cr503   1.968       .  S
O495        C496   1.250       .  A
C496        O497   1.264       .  A
C496       C1584   1.470       .  S
O497       Cr504   2.019       .  S
O498       Cr504   2.020       .  S
O498        C499   1.276       .  A
C499        O500   1.253       .  A
C499        C864   1.461       .  S
O500       Cr505   1.968       .  S
O501       Cr505   1.995       .  S
O501        C502   1.265       .  A
C502       C1728   1.485       .  S
Cr503       O506   1.770       .  S
Cr504       O506   1.780       .  S
Cr505       O506   1.779       .  S
O507      Cr2381   1.987       .  S
O507        C515   1.264       .  A
O508      Cr2381   1.964       .  S
O508       C2365   1.261       .  A
C509        O510   1.288   1_556  A
C509       O2364   1.260       .  A
C509       C2657   1.519       .  S
O510       Cr526   2.092       .  S
O511       Cr526   1.995       .  S
O511        C512   1.270       .  A
C512        O513   1.270       .  A
C512        C840   1.507       .  S
O513       Cr527   2.022       .  S
O514       Cr527   1.967       .  S
O514       C2371   1.259       .  A
C515       O2370   1.254       .  A
C515        C816   1.444       .  S
O516       Cr525   1.980       .  S
O516        C524   1.256       .  A
O517       Cr525   1.986       .  S
O517        C518   1.261       .  A
C518        O519   1.260       .  A
C518       C1044   1.476       .  S
O519       Cr526   1.985       .  S
O520       Cr526   2.075       .  S
O520        C521   1.273       .  A
C521        O522   1.239       .  A
C521        C825   1.484       .  S
O522       Cr527   1.938       .  S
O523       Cr527   1.996       .  S
O523        C524   1.260       .  A
C524       C1188   1.460       .  S
Cr525      O2363   1.991   1_554  S
Cr525      O2364   1.961   1_554  S
Cr525       O528   1.757       .  S
Cr526       O528   1.783       .  S
Cr527       O528   1.754       .  S
O529       Cr547   1.961       .  S
O529        C537   1.259       .  A
O530       Cr547   2.002       .  S
O530        C531   1.265       .  A
C531        O532   1.278       .  A
C531        C804   1.502       .  S
O532       Cr548   2.034       .  S
O533       Cr548   2.024       .  S
O533        C534   1.269       .  A
C534        O535   1.271       .  A
C534        C780   1.520       .  S
O535       Cr549   1.990       .  S
O536       Cr549   2.005       .  S
O536        C537   1.264       .  A
C537       C1020   1.474       .  S
O538       Cr547   1.989       .  S
O538        C546   1.260       .  A
O539       Cr547   1.970       .  S
O539        C540   1.254       .  A
C540        O541   1.262       .  A
C540        C765   1.473       .  S
O541       Cr548   2.003       .  S
O542       Cr548   2.018       .  S
O542        C543   1.269       .  A
C543        O544   1.251       .  A
C543       C1032   1.463       .  S
O544       Cr549   1.956       .  S
O545       Cr549   1.987       .  S
O545        C546   1.259       .  A
C546        C789   1.490       .  S
Cr547       O550   1.779       .  S
Cr548       O550   1.783       .  S
Cr549       O550   1.788       .  S
O551       Cr569   1.939       .  S
O551        C559   1.245       .  A
O552       Cr569   1.998       .  S
O552        C553   1.262       .  A
C553        O554   1.278       .  A
C553       C1128   1.504       .  S
O554       Cr570   2.048       .  S
O555       Cr570   2.016       .  S
O555        C556   1.265       .  A
C556        O557   1.271       .  A
C556        C777   1.510       .  S
O557       Cr571   1.991       .  S
O558       Cr571   2.022       .  S
O558        C559   1.266       .  A
C559       C1080   1.476       .  S
O560       Cr569   2.020       .  S
O560        C568   1.265       .  A
O561       Cr569   1.975       .  S
O561        C562   1.261       .  A
C562        O563   1.268       .  A
C562        C921   1.485       .  S
O563       Cr570   2.018       .  S
O564       Cr570   2.013       .  S
O564        C565   1.273       .  A
C565        O566   1.257       .  A
C565       C1092   1.457       .  S
O566       Cr571   1.973       .  S
O567       Cr571   1.994       .  S
O567        C568   1.262       .  A
C568        C957   1.498       .  S
Cr569       O572   1.765       .  S
Cr570       O572   1.774       .  S
Cr571       O572   1.792       .  S
O573       Cr591   1.989       .  S
O573       C2437   1.255       .  A
O574       Cr591   2.009       .  S
O574        C575   1.271       .  A
C575        O576   1.260       .  A
C575        C756   1.501       .  S
O576       Cr592   1.985       .  S
O577       Cr592   2.060       .  S
O577       C2434   1.292       .  A
C578        O579   1.271       .  A
C578       O2433   1.291   1_554  A
C578       C1764   1.497       .  S
O579      Cr2449   1.962   1_554  S
O580      Cr2449   1.916   1_554  S
O580        C581   1.242       .  A
C581       O2429   1.259       .  A
C581        C861   1.488       .  S
O582       Cr591   2.022       .  S
O582        C590   1.279       .  A
O583       Cr591   1.929       .  S
O583        C584   1.248       .  A
C584        O585   1.266       .  A
C584        C849   1.458       .  S
O585       Cr592   2.000       .  S
O586       Cr592   1.994       .  S
O586        C587   1.248       .  A
C587        O588   1.242       .  A
C587        C888   1.489       .  S
O588       Cr593   1.978       .  S
O589       Cr593   1.987       .  S
O589        C590   1.280       .  A
C590       C1656   1.495       .  S
Cr591       O594   1.785       .  S
Cr592       O594   1.770       .  S
Cr593      O2435   1.964       .  S
Cr593      O2436   1.945       .  S
Cr593       O594   1.773       .  S
O595       Cr613   1.978       .  S
O595        C603   1.261       .  A
O596       Cr613   2.034       .  S
O596        C597   1.271       .  A
C597        O598   1.271       .  A
C597        C753   1.498       .  S
O598       Cr614   2.002       .  S
O599       Cr614   2.060       .  S
O599        C600   1.279       .  A
C600        O601   1.259       .  A
C600       C1221   1.504       .  S
O601       Cr615   1.963       .  S
O602       Cr615   1.987       .  S
O602        C603   1.264       .  A
C603        C828   1.463       .  S
O604       Cr613   2.002       .  S
O604        C612   1.264       .  A
O605       Cr613   1.937       .  S
O605        C606   1.243       .  A
C606        O607   1.264       .  A
C606        C813   1.462       .  S
O607       Cr614   2.021       .  S
O608       Cr614   1.991       .  S
O608        C609   1.259       .  A
C609        O610   1.263       .  A
C609        C741   1.484       .  S
O610       Cr615   1.999       .  S
O611       Cr615   1.977       .  S
O611        C612   1.258       .  A
C612        C768   1.464       .  S
Cr613       O616   1.765       .  S
Cr614       O616   1.784       .  S
Cr615       O616   1.761       .  S
O617       Cr635   1.986       .  S
O617        C625   1.263       .  A
O618       Cr635   1.971       .  S
O618        C619   1.261       .  A
C619        O620   1.285       .  A
C619       C1440   1.516       .  S
O620       Cr636   2.078       .  S
O621       Cr636   2.025       .  S
O621        C622   1.277       .  A
C622        O623   1.264       .  A
C622        C729   1.523       .  S
O623       Cr637   2.002       .  S
O624       Cr637   1.981       .  S
O624        C625   1.266       .  A
C625       C1260   1.462       .  S
O626       Cr635   2.002       .  S
O626        C634   1.262       .  A
O627       Cr635   1.986       .  S
O627        C628   1.258       .  A
C628        O629   1.259       .  A
C628        C969   1.474       .  S
O629       Cr636   1.985       .  S
O630       Cr636   2.044       .  S
O630        C631   1.270       .  A
C631        O632   1.253       .  A
C631       C1272   1.478       .  S
O632       Cr637   1.944       .  S
O633       Cr637   1.985       .  S
O633        C634   1.257       .  A
C634        C912   1.468       .  S
Cr635       O638   1.772       .  S
Cr636       O638   1.788       .  S
Cr637       O638   1.761       .  S
O639       Cr657   1.957       .  S
O639        C647   1.252       .  A
O640       Cr657   2.003       .  S
O640        C641   1.267       .  A
C641        O642   1.274       .  A
C641       C1293   1.495       .  S
O642       Cr658   2.027       .  S
O643       Cr658   2.025       .  S
O643        C644   1.266       .  A
C644        O645   1.270       .  A
C644        C732   1.512       .  S
O645       Cr659   1.993       .  S
O646       Cr659   2.017       .  S
O646        C647   1.267       .  A
C647       C1200   1.493       .  S
O648       Cr657   2.015       .  S
O648        C656   1.266       .  A
O649       Cr657   1.984       .  S
O649        C650   1.260       .  A
C650        O651   1.269       .  A
C650        C717   1.503       .  S
O651       Cr658   2.030       .  S
O652       Cr658   2.015       .  S
O652        C653   1.274       .  A
C653        O654   1.260       .  A
C653       C1209   1.469       .  S
O654       Cr659   1.973       .  S
O655       Cr659   1.972       .  S
O655        C656   1.257       .  A
C656        C744   1.497       .  S
Cr657       O660   1.775       .  S
Cr658       O660   1.781       .  S
Cr659       O660   1.783       .  S
O661       Cr679   2.011       .  S
O661       C2525   1.266       .  A
O662       Cr679   1.991       .  S
O662        C663   1.272       .  A
C663        O664   1.265       .  A
C663        C705   1.497       .  S
O664       Cr680   2.002       .  S
O665       Cr680   2.018       .  S
O665        C666   1.273       .  A
C666       O2523   1.266       .  A
C666       C3404   1.488       .  S
O667      Cr2537   2.008   1_554  S
O667       C2522   1.268       .  A
O668      Cr2537   1.963   1_554  S
O668        C669   1.256       .  A
C669       O2517   1.267   1_554  A
C669       C1377   1.485       .  S
O670       Cr679   1.979       .  S
O670        C678   1.260       .  A
O671       Cr679   1.967       .  S
O671        C672   1.254       .  A
C672        O673   1.270       .  A
C672       C1368   1.465       .  S
O673       Cr680   2.019       .  S
O674       Cr680   2.000       .  S
O674        C675   1.260       .  A
C675        O676   1.255       .  A
C675       C1716   1.477       .  S
O676       Cr681   1.970       .  S
O677       Cr681   1.991       .  S
O677        C678   1.257       .  A
C678        C873   1.484       .  S
Cr679       O682   1.782       .  S
Cr680       O682   1.779       .  S
Cr681      O2523   2.000       .  S
Cr681      O2524   1.966       .  S
Cr681       O682   1.773       .  S
O683       Cr701   1.974       .  S
O683        C691   1.256       .  A
O684       Cr701   1.984       .  S
O684        C685   1.265       .  A
C685        O686   1.267       .  A
C685        C708   1.505       .  S
O686       Cr702   2.022       .  S
O687       Cr702   2.027       .  S
O687        C688   1.278       .  A
C688        O689   1.264       .  A
C688       C1008   1.490       .  S
O689       Cr703   1.988       .  S
O690       Cr703   1.956       .  S
O690        C691   1.259       .  A
C691       C1320   1.457       .  S
O692       Cr701   1.999       .  S
O692        C700   1.265       .  A
O693       Cr701   1.954       .  S
O693        C694   1.250       .  A
C694        O695   1.268       .  A
C694       C1308   1.445       .  S
O695       Cr702   2.011       .  S
O696       Cr702   1.999       .  S
O696        C697   1.260       .  A
C697        O698   1.257       .  A
C697        C792   1.470       .  S
O698       Cr703   1.984       .  S
O699       Cr703   1.999       .  S
O699        C700   1.261       .  A
C700        C720   1.491       .  S
Cr701       O704   1.788       .  S
Cr702       O704   1.783       .  S
Cr703       O704   1.767       .  S
C705        C706   1.407       .  A
C705        C710   1.417       .  A
C706        C707   1.413       .  A
C706        H715   1.082       .  S
C707        C708   1.423       .  A
C707        S711   1.809       .  S
C708        C709   1.408       .  A
C709        C710   1.408       .  A
C709        H716   1.084       .  S
C710        S712   1.803       .  S
S711        H714   1.406       .  S
S712        H713   1.407       .  S
C717        C718   1.408       .  A
C717        C722   1.420       .  A
C718        C719   1.408       .  A
C718        H727   1.084       .  S
C719        C720   1.417       .  A
C719        S723   1.799       .  S
C720        C721   1.399       .  A
C721        C722   1.401       .  A
C721        H728   1.084       .  S
C722        S724   1.789       .  S
S723        H726   1.402       .  S
S724        H725   1.406       .  S
C729        C730   1.412       .  A
C729        C734   1.431       .  A
C730        C731   1.420       .  A
C730        H739   1.083       .  S
C731        C732   1.422       .  A
C731        S735   1.802       .  S
C732        C733   1.403       .  A
C733        C734   1.408       .  A
C733        H740   1.084       .  S
C734        S736   1.805       .  S
S735        H738   1.407       .  S
S736        H737   1.405       .  S
C741        C742   1.401       .  A
C741        C746   1.412       .  A
C742        C743   1.398       .  A
C742        H751   1.082       .  S
C743        C744   1.419       .  A
C743        S747   1.807       .  S
C744        C745   1.412       .  A
C745        C746   1.408       .  A
C745        H752   1.082       .  S
C746        S748   1.808       .  S
S747        H750   1.407       .  S
S748        H749   1.407       .  S
C753        C754   1.396       .  A
C753        C758   1.420       .  A
C754        C755   1.411   1_545  A
C754        H763   1.083       .  S
C755        C756   1.427       .  A
C755        S759   1.807       .  S
C756        C757   1.399   1_565  A
C757        C758   1.411       .  A
C757        H764   1.083       .  S
C758        S760   1.798       .  S
S759        H762   1.407       .  S
S760        H761   1.407       .  S
C765        C766   1.405       .  A
C765        C770   1.411       .  A
C766        C767   1.398       .  A
C766        H775   1.084       .  S
C767        C768   1.408       .  A
C767        S771   1.802       .  S
C768        C769   1.401       .  A
C769        C770   1.400       .  A
C769        H776   1.083       .  S
C770        S772   1.807       .  S
S771        H774   1.405       .  S
S772        H773   1.407       .  S
C777        C778   1.409       .  A
C777        C782   1.417       .  A
C778        C779   1.414       .  A
C778        H787   1.084       .  S
C779        C780   1.423       .  A
C779        S783   1.799       .  S
C780        C781   1.414       .  A
C781        C782   1.414       .  A
C781        H788   1.083       .  S
C782        S784   1.803       .  S
S783        H786   1.408       .  S
S784        H785   1.407       .  S
C789        C790   1.411       .  A
C789        C794   1.418       .  A
C790        C791   1.397       .  A
C790        H799   1.084       .  S
C791        C792   1.406       .  A
C791        S795   1.804       .  S
C792        C793   1.403       .  A
C793        C794   1.403       .  A
C793        H800   1.083       .  S
C794        S796   1.809       .  S
S795        H798   1.405       .  S
S796        H797   1.407       .  S
C801       C2365   1.520       .  S
C801        C802   1.414       .  A
C801        C806   1.423       .  A
C802        C803   1.408       .  A
C802        H811   1.084       .  S
C803        C804   1.414       .  A
C803        S807   1.804       .  S
C804        C805   1.410       .  A
C805        C806   1.419       .  A
C805        H812   1.084       .  S
C806        S808   1.798       .  S
S807        H810   1.406       .  S
S808       H2665   1.407       .  S
H809       S2664   1.406       .  S
C813        C814   1.397       .  A
C813        C818   1.421       .  A
C814        C815   1.397       .  A
C814        H823   1.083       .  S
C815        C816   1.409       .  A
C815        S819   1.805       .  S
C816        C817   1.389       .  A
C817        C818   1.390       .  A
C817        H824   1.084       .  S
C818        S820   1.811       .  S
S819        H822   1.407       .  S
S820        H821   1.407       .  S
C825        C826   1.400       .  A
C825        C830   1.429       .  A
C826        C827   1.409       .  A
C826        H835   1.082       .  S
C827        C828   1.415       .  A
C827        S831   1.804       .  S
C828        C829   1.388       .  A
C829        C830   1.393       .  A
C829        H836   1.084       .  S
C830        S832   1.810       .  S
S831        H834   1.407       .  S
S832        H833   1.407       .  S
C837        C838   1.419       .  A
C837        C842   1.413   1_565  A
C838        C839   1.412   1_565  A
C838        H847   1.083       .  S
C839        C840   1.413       .  A
C839        S843   1.800       .  S
C840        C841   1.413       .  A
C841        C842   1.402       .  A
C841        H848   1.077       .  S
C842        S844   1.803       .  S
S843        H846   1.407       .  S
S844        H845   1.408       .  S
C849        C850   1.396       .  A
C849        C854   1.419       .  A
C850        C851   1.392       .  A
C850        H859   1.084       .  S
C851        C852   1.415       .  A
C851        S855   1.800       .  S
C852        C853   1.395       .  A
C853        C854   1.394       .  A
C853        H860   1.083       .  S
C854        S856   1.809       .  S
S855        H858   1.407       .  S
S856        H857   1.407       .  S
C861        C862   1.413       .  A
C861        C866   1.415       .  A
C862        C863   1.385       .  A
C862        H871   1.085       .  S
C863        C864   1.399       .  A
C863        S867   1.796       .  S
C864        C865   1.414       .  A
C865        C866   1.411       .  A
C865        H872   1.084       .  S
C866        S868   1.798       .  S
S867        H870   1.403       .  S
S868        H869   1.406       .  S
C873        C874   1.406       .  A
C873        C878   1.423       .  A
C874        C875   1.394       .  A
C874        H883   1.084       .  S
C875        C876   1.409       .  A
C875        S879   1.799       .  S
C876        C877   1.395       .  A
C877        C878   1.395       .  A
C877       H2740   1.084       .  S
C878       S2736   1.801       .  S
S879        H882   1.405       .  S
S880       C2734   1.807       .  S
S880        H881   1.407   1_556  S
H884       C2733   1.082       .  S
C885        C886   1.404       .  A
C885        C890   1.421       .  A
C886        C887   1.397       .  A
C886        H895   1.084       .  S
C887        C888   1.420       .  A
C887        S891   1.799       .  S
C888        C889   1.403       .  A
C889        C890   1.402       .  A
C889        H896   1.084       .  S
C890        S892   1.800       .  S
S891        H894   1.393       .  S
S892        H893   1.408       .  S
C897        C898   1.407       .  A
C897        C902   1.420       .  A
C898       C2755   1.408   1_554  A
C898        H907   1.084       .  S
C899        C900   1.423       .  A
C899       C2754   1.409       .  A
C899        S903   1.802       .  S
C900        C901   1.410       .  A
C901       C2758   1.408       .  A
C901        H908   1.084       .  S
C902       C2757   1.407   1_554  A
C902        S904   1.803       .  S
S903        H906   1.403       .  S
S904        H905   1.407       .  S
C909        C910   1.408       .  A
C909        C914   1.421       .  A
C910        C911   1.402       .  A
C910        H919   1.083       .  S
C911        C912   1.407       .  A
C911        S915   1.797       .  S
C912        C913   1.397       .  A
C913        C914   1.398       .  A
C913        H920   1.084       .  S
C914        S916   1.795       .  S
S915        H918   1.406       .  S
S916        H917   1.403       .  S
C921        C922   1.405       .  A
C921        C926   1.415       .  A
C922        C923   1.400       .  A
C922        H931   1.084       .  S
C923        C924   1.413       .  A
C923        S927   1.804       .  S
C924        C925   1.403       .  A
C925        C926   1.406       .  A
C925        H932   1.081       .  S
C926        S928   1.808       .  S
S927        H930   1.403   1_455  S
S928        H929   1.407       .  S
C933        C934   1.407       .  A
C933        C938   1.412       .  A
C934        C935   1.402       .  A
C934        H943   1.083       .  S
C935        C936   1.417       .  A
C935       S2795   1.807   1_554  S
C936        C937   1.413       .  A
C937        C938   1.405       .  A
C937        H944   1.083       .  S
C938        S940   1.802       .  S
S939       C2791   1.806       .  S
S939       H2798   1.407       .  S
S940        H941   1.407       .  S
H942       S2795   1.407       .  S
C945        C946   1.399   1_565  A
C945        C950   1.426       .  A
C946        C947   1.407       .  A
C946        H955   1.084       .  S
C947        C948   1.423       .  A
C947        S951   1.795       .  S
C948        C949   1.401   1_545  A
C949        C950   1.412       .  A
C949        H956   1.083       .  S
C950        S952   1.796       .  S
S951        H954   1.406       .  S
S952        H953   1.405       .  S
C957        C958   1.408       .  A
C957        C962   1.414       .  A
C958        C959   1.412       .  A
C958        H967   1.084       .  S
C959        C960   1.420       .  A
C959        S963   1.802       .  S
C960        C961   1.409       .  A
C961        C962   1.404       .  A
C961        H968   1.082       .  S
C962        S964   1.800       .  S
S963        H966   1.407       .  S
S964        H965   1.406       .  S
C969        C970   1.406       .  A
C969        C974   1.408       .  A
C970        C971   1.398       .  A
C970        H979   1.084       .  S
C971        C972   1.416       .  A
C971        S975   1.803       .  S
C972        C973   1.411       .  A
C973        C974   1.395       .  A
C973        H980   1.084       .  S
C974        S976   1.802       .  S
S975        H978   1.407   1_655  S
S976        H977   1.407       .  S
C981        C982   1.417       .  A
C981        C986   1.406       .  A
C982        C983   1.409       .  A
C982        H991   1.082       .  S
C983        C984   1.407       .  A
C983        S987   1.803       .  S
C984        C985   1.414       .  A
C985        C986   1.409       .  A
C985        H992   1.075       .  S
C986        S988   1.801       .  S
S987        H990   1.406       .  S
S988        H989   1.406       .  S
C993        C994   1.395       .  A
C993        C998   1.409       .  A
C994        C995   1.399       .  A
C994       H2859   1.084       .  S
C995        C996   1.426       .  A
C995       S2855   1.800   1_554  S
C996        C997   1.406       .  A
C997        C998   1.395       .  A
C997       H1004   1.083       .  S
C998       S1000   1.800       .  S
S999       C2851   1.801       .  S
S999       H1002   1.407       .  S
S1000      H1001   1.406       .  S
H1003      C2850   1.084       .  S
C1005      C1006   1.408       .  A
C1005      C1010   1.414       .  A
C1006      C1007   1.415       .  A
C1006      H1015   1.083       .  S
C1007      C1008   1.412       .  A
C1007      S1011   1.805       .  S
C1008      C1009   1.407       .  A
C1009      C1010   1.407       .  A
C1009      H1016   1.084       .  S
C1010      S1012   1.803       .  S
S1011      H1014   1.407       .  S
S1012      H1013   1.405       .  S
C1017      C1018   1.411       .  A
C1017      C1022   1.406       .  A
C1018      C1019   1.399       .  A
C1018      H1027   1.085       .  S
C1019      C1020   1.409       .  A
C1019      S1023   1.803       .  S
C1020      C1021   1.409       .  A
C1021      C1022   1.400       .  A
C1021      H1028   1.084       .  S
C1022      S1024   1.801       .  S
S1023      H1026   1.406       .  S
S1024      H2881   1.407       .  S
H1025      S2880   1.406       .  S
C1029      C1030   1.407       .  A
C1029      C1034   1.414       .  A
C1030      C1031   1.397       .  A
C1030      H1039   1.084       .  S
C1031      C1032   1.406       .  A
C1031      S1035   1.800       .  S
C1032      C1033   1.408       .  A
C1033      C1034   1.400       .  A
C1033      H1040   1.085       .  S
C1034      S1036   1.805       .  S
S1035      H1038   1.405       .  S
S1036      H1037   1.407       .  S
C1041      C1042   1.411       .  A
C1041      C1046   1.414       .  A
C1042      C1043   1.400       .  A
C1042      H1051   1.084       .  S
C1043      C1044   1.412       .  A
C1043      S1047   1.803       .  S
C1044      C1045   1.404       .  A
C1045      C1046   1.390       .  A
C1045      H1052   1.084       .  S
C1046      S1048   1.798       .  S
S1047      H1050   1.407       .  S
S1048      H1049   1.402       .  S
C1053      C1054   1.410       .  A
C1053      C1058   1.413       .  A
C1054      C2911   1.405       .  A
C1054      H1063   1.084       .  S
C1055      C1056   1.420       .  A
C1055      C2910   1.405   1_554  A
C1055      S1059   1.802       .  S
C1056      C1057   1.417       .  A
C1057      C2914   1.417   1_554  A
C1057      H1064   1.083       .  S
C1058      C2913   1.417       .  A
C1058      S1060   1.801       .  S
S1059      H1062   1.408       .  S
S1060      H1061   1.407       .  S
C1065      C1066   1.407       .  A
C1065      C1070   1.410       .  A
C1066      C1067   1.408       .  A
C1066      H1075   1.084       .  S
C1067      C1068   1.416       .  A
C1067      S1071   1.800       .  S
C1068      C1069   1.410       .  A
C1069      C1070   1.405       .  A
C1069      H1076   1.084       .  S
C1070      S1072   1.801       .  S
S1071      H1074   1.407       .  S
S1072      H1073   1.405       .  S
C1077      C1078   1.396       .  A
C1077      C1082   1.409       .  A
C1078      C1079   1.386       .  A
C1078      H1087   1.084       .  S
C1079      C1080   1.425       .  A
C1079      S1083   1.818       .  S
C1080      C1081   1.408       .  A
C1081      C1082   1.399       .  A
C1081      H1088   1.084       .  S
C1082      S1084   1.799       .  S
S1083      H1086   1.407       .  S
S1084      H1085   1.407       .  S
C1089      C1090   1.406       .  A
C1089      C1094   1.425       .  A
C1090      C1091   1.409       .  A
C1090      H1099   1.083       .  S
C1091      C1092   1.415       .  A
C1091      S1095   1.801       .  S
C1092      C1093   1.393       .  A
C1093      C1094   1.388       .  A
C1093      H1100   1.086       .  S
C1094      S1096   1.810       .  S
S1095      H1098   1.407       .  S
S1096      H1097   1.408       .  S
C1101      C1102   1.396       .  A
C1101      C1106   1.433       .  A
C1102      C1103   1.398       .  A
C1102      H1111   1.084       .  S
C1103      C1104   1.421       .  A
C1103      S1107   1.803       .  S
C1104      C1105   1.384       .  A
C1105      C1106   1.389       .  A
C1105      H1112   1.084       .  S
C1106      S1108   1.810       .  S
S1107      H1110   1.395       .  S
S1108      H1109   1.408       .  S
C1113      C1114   1.413       .  A
C1113      C1118   1.406       .  A
C1114      C1115   1.392   1_455  A
C1114      H1123   1.084   1_455  S
C1115      C1116   1.400       .  A
C1115      S1119   1.803       .  S
C1116      C1117   1.413   1_655  A
C1117      C1118   1.405       .  A
C1117      H1124   1.084       .  S
C1118      S1120   1.801       .  S
S1119      H1122   1.407       .  S
S1120      H1121   1.406       .  S
C1125      C1126   1.407       .  A
C1125      C1130   1.421       .  A
C1126      C1127   1.418       .  A
C1126      H1135   1.084   1_554  S
C1127      C1128   1.422       .  A
C1127      S1131   1.801       .  S
C1128      C1129   1.404       .  A
C1129      C1130   1.410       .  A
C1129      H1136   1.084       .  S
C1130      S1132   1.806       .  S
S1131      H1134   1.406       .  S
S1132      H1133   1.408       .  S
C1137      C1138   1.407       .  A
C1137      C1142   1.405       .  A
C1138      C1139   1.400       .  A
C1138      H1147   1.084       .  S
C1139      C1140   1.411       .  A
C1139      S1143   1.799       .  S
C1140      C1141   1.412       .  A
C1141      C1142   1.397       .  A
C1141      H1148   1.084       .  S
C1142      S3000   1.801       .  S
S1143      H1146   1.407       .  S
S1144      C2998   1.803       .  S
S1144      H1145   1.405       .  S
C1149      C1150   1.416       .  A
C1149      C1154   1.407   1_545  A
C1150      C1151   1.418   1_545  A
C1150      H1159   1.083       .  S
C1151      C1152   1.414       .  A
C1151      S1155   1.803   1_565  S
C1152      C1153   1.411       .  A
C1153      C1154   1.407       .  A
C1153      H1160   1.074       .  S
C1154      S1156   1.803       .  S
S1155      H1158   1.404   1_545  S
S1156      H1157   1.407   1_565  S
C1161      C1162   1.399   1_455  A
C1161      C1166   1.433   1_455  A
C1162      C1163   1.398       .  A
C1162      H1171   1.082       .  S
C1163      C1164   1.410       .  A
C1163      S1167   1.804       .  S
C1164      C1165   1.384       .  A
C1165      C1166   1.387       .  A
C1165      H1172   1.076       .  S
C1166      S3024   1.820   1_655  S
S1167      H1170   1.406       .  S
S1168      C3022   1.816       .  S
S1168      H1169   1.408       .  S
C1173      C1174   1.390       .  A
C1173      C1178   1.412   1_655  A
C1174      C1175   1.396       .  A
C1174      H1183   1.083       .  S
C1175      C1176   1.426   1_655  A
C1175      S1179   1.811       .  S
C1176      C1177   1.400       .  A
C1177      C1178   1.406       .  A
C1177      H1184   1.082       .  S
C1178      S1180   1.802       .  S
S1179      H1182   1.407       .  S
S1180      H1181   1.407       .  S
C1185      C1186   1.402       .  A
C1185      C1190   1.410       .  A
C1186      C1187   1.402       .  A
C1186      H3051   1.083       .  S
C1187      C1188   1.408       .  A
C1187      S3047   1.806       .  S
C1188      C1189   1.398       .  A
C1189      C1190   1.394       .  A
C1189      H1196   1.084       .  S
C1190      S1192   1.800       .  S
S1191      C3043   1.805       .  S
S1191      H1194   1.407       .  S
S1192      H1193   1.407       .  S
H1195      C3042   1.083       .  S
C1197      C1198   1.398       .  A
C1197      C1202   1.408       .  A
C1198      C1199   1.402       .  A
C1198      H1207   1.084       .  S
C1199      C1200   1.425       .  A
C1199      S1203   1.812       .  S
C1200      C1201   1.410       .  A
C1201      C1202   1.399       .  A
C1201      H1208   1.083       .  S
C1202      S1204   1.804       .  S
S1203      H1206   1.407       .  S
S1204      H1205   1.407       .  S
C1209      C1210   1.410       .  A
C1209      C1214   1.404       .  A
C1210      C1211   1.404       .  A
C1210      H1219   1.085       .  S
C1211      C1212   1.412       .  A
C1211      S1215   1.802       .  S
C1212      C1213   1.408       .  A
C1213      C1214   1.397       .  A
C1213      H1220   1.083       .  S
C1214      S1216   1.801       .  S
S1215      H1218   1.406       .  S
S1216      H1217   1.407       .  S
C1221      C1222   1.412       .  A
C1221      C1226   1.419       .  A
C1222      C1223   1.407       .  A
C1222      H1231   1.084       .  S
C1223      C1224   1.413       .  A
C1223      S1227   1.802       .  S
C1224      C1225   1.408       .  A
C1225      C1226   1.409       .  A
C1225      H1232   1.084       .  S
C1226      S1228   1.801       .  S
S1227      H1230   1.404       .  S
S1228      H1229   1.407       .  S
C1233      C1234   1.416       .  A
C1233      C1238   1.411       .  A
C1234      C1235   1.411       .  A
C1234      H1243   1.083       .  S
C1235      C1236   1.411       .  A
C1235      S1239   1.802       .  S
C1236      C1237   1.408       .  A
C1237      C1238   1.392       .  A
C1237      H3100   1.083       .  S
C1238      S3096   1.804       .  S
S1239      H1242   1.407   1_655  S
S1240      C3094   1.801   1_554  S
S1240      H1241   1.406       .  S
H1244      C3093   1.082       .  S
C1245      C1246   1.407       .  A
C1245      C1250   1.410       .  A
C1246      C1247   1.406       .  A
C1246      H1255   1.085       .  S
C1247      C1248   1.417       .  A
C1247      S1251   1.800       .  S
C1248      C1249   1.412       .  A
C1249      C1250   1.408       .  A
C1249      H1256   1.084       .  S
C1250      S1252   1.802       .  S
S1251      H1254   1.406       .  S
S1252      H1253   1.406       .  S
C1257      C1258   1.419       .  A
C1257      C1262   1.409       .  A
C1258      C1259   1.392       .  A
C1258      H3123   1.082       .  S
C1259      C1260   1.397       .  A
C1259      S1263   1.803       .  S
C1260      C1261   1.409       .  A
C1261      C1262   1.402       .  A
C1261      H1268   1.084       .  S
C1262      S1264   1.796       .  S
S1263      H1266   1.405       .  S
S1264      H1265   1.407       .  S
H1267      C3114   1.083       .  S
C1269      C1270   1.410       .  A
C1269      C1274   1.421       .  A
C1270      C1271   1.403       .  A
C1270      H1279   1.084       .  S
C1271      C1272   1.407       .  A
C1271      S1275   1.797       .  S
C1272      C1273   1.398       .  A
C1273      C1274   1.395       .  A
C1273      H1280   1.076       .  S
C1274      S1276   1.813       .  S
S1275      H1278   1.407       .  S
S1276      H1277   1.406       .  S
C1281      C1282   1.406       .  A
C1281      C1286   1.416       .  A
C1282      C3139   1.404       .  A
C1282      H1291   1.084       .  S
C1283      C1284   1.419       .  A
C1283      C3138   1.404   1_554  A
C1283      S1287   1.800       .  S
C1284      C1285   1.413       .  A
C1285      C3142   1.413   1_554  A
C1285      H1292   1.084       .  S
C1286      C3141   1.410       .  A
C1286      S1288   1.803       .  S
S1287      H1290   1.407       .  S
S1288      H1289   1.407       .  S
C1293      C1294   1.406       .  A
C1293      C1298   1.413       .  A
C1294      C1295   1.406       .  A
C1294      H1303   1.084       .  S
C1295      C1296   1.414       .  A
C1295      S1299   1.798       .  S
C1296      C1297   1.409       .  A
C1297      C1298   1.411       .  A
C1297      H1304   1.084       .  S
C1298      S1300   1.798       .  S
S1299      H3158   1.406       .  S
S1300      H1301   1.405       .  S
H1302      S3155   1.405       .  S
C1305      C1306   1.404       .  A
C1305      C1310   1.414       .  A
C1306      C1307   1.398       .  A
C1306      H1315   1.084       .  S
C1307      C1308   1.410       .  A
C1307      S1311   1.803       .  S
C1308      C1309   1.400       .  A
C1309      C1310   1.396       .  A
C1309      H1316   1.084       .  S
C1310      S1312   1.811       .  S
S1311      H1314   1.407       .  S
S1312      H1313   1.406       .  S
C1317      C1318   1.398       .  A
C1317      C1322   1.423       .  A
C1318      C1319   1.396       .  A
C1318      H1327   1.083       .  S
C1319      C1320   1.414       .  A
C1319      S1323   1.806       .  S
C1320      C1321   1.393       .  A
C1321      C1322   1.388       .  A
C1321      H1328   1.083       .  S
C1322      S1324   1.815       .  S
S1323      H1326   1.407       .  S
S1324      H1325   1.407       .  S
C1329      C1330   1.402       .  A
C1329      C1334   1.412       .  A
C1330      C1331   1.403       .  A
C1330      H1339   1.084       .  S
C1331      C1332   1.412       .  A
C1331      S1335   1.802       .  S
C1332      C1333   1.398       .  A
C1333      C1334   1.394       .  A
C1333      H1340   1.085       .  S
C1334      S3192   1.801       .  S
S1335      H1338   1.404       .  S
S1336      C3190   1.802       .  S
S1336      H3193   1.408       .  S
H1337      S3192   1.407       .  S
C1341      C1342   1.403       .  A
C1341      C1346   1.411       .  A
C1342      C1343   1.409       .  A
C1342      H1351   1.084       .  S
C1343      C1344   1.420       .  A
C1343      S1347   1.801       .  S
C1344      C1345   1.399       .  A
C1345      C1346   1.402       .  A
C1345      H3208   1.083       .  S
C1346      S3204   1.796   1_554  S
S1347      H1350   1.407       .  S
S1348      C3202   1.798       .  S
S1348      H1349   1.407       .  S
H1352      C3201   1.083       .  S
C1353      C1354   1.407       .  A
C1353      C1358   1.415       .  A
C1354      C1355   1.410       .  A
C1354      H1363   1.084       .  S
C1355      C1356   1.416       .  A
C1355      S1359   1.803       .  S
C1356      C1357   1.405       .  A
C1357      C1358   1.407       .  A
C1357      H1364   1.084       .  S
C1358      S1360   1.801       .  S
S1359      H1362   1.405       .  S
S1360      H1361   1.405       .  S
C1365      C1366   1.409       .  A
C1365      C1370   1.415       .  A
C1366      C1367   1.398       .  A
C1366      H1375   1.084       .  S
C1367      C1368   1.406       .  A
C1367      S1371   1.803       .  S
C1368      C1369   1.407       .  A
C1369      C1370   1.404       .  A
C1369      H1376   1.084       .  S
C1370      S1372   1.803       .  S
S1371      H1374   1.406       .  S
S1372      H1373   1.407       .  S
C1377      C1378   1.404       .  A
C1377      C1382   1.424       .  A
C1378      C1379   1.396       .  A
C1378      H1387   1.084       .  S
C1379      C1380   1.410       .  A
C1379      S1383   1.801       .  S
C1380      C1381   1.397       .  A
C1381      C1382   1.399       .  A
C1381      H1388   1.085       .  S
C1382      S1384   1.802       .  S
S1383      H1386   1.407       .  S
S1384      H1385   1.398       .  S
C1389      C1390   1.413       .  A
C1389      C1394   1.417       .  A
C1390      C1391   1.406       .  A
C1390      H1399   1.080       .  S
C1391      C1392   1.418       .  A
C1391      S1395   1.802       .  S
C1392      C1393   1.420       .  A
C1393      C1394   1.422       .  A
C1393      H1400   1.083       .  S
C1394      S1396   1.799       .  S
S1395      H1398   1.408       .  S
S1396      H1397   1.407       .  S
C1401      C1402   1.408       .  A
C1401      C1406   1.416       .  A
C1402      C1403   1.415       .  A
C1402      H1411   1.083       .  S
C1403      C1404   1.417       .  A
C1403      S1407   1.801       .  S
C1404      C1405   1.405       .  A
C1405      C1406   1.408       .  A
C1405      H1412   1.084       .  S
C1406      S1408   1.802       .  S
S1407      H1410   1.405       .  S
S1408      H1409   1.407       .  S
C1413      C1414   1.411       .  A
C1413      C1418   1.406   1_655  A
C1414      C1415   1.399   1_655  A
C1414      H1423   1.082       .  S
C1415      C1416   1.406       .  A
C1415      S1419   1.801       .  S
C1416      C1417   1.408       .  A
C1417      C1418   1.394       .  A
C1417      H1424   1.067       .  S
C1418      S1420   1.805       .  S
S1419      H1422   1.404       .  S
S1420      H1421   1.408   1_455  S
C1425      C1426   1.408       .  A
C1425      C1430   1.405       .  A
C1426      C1427   1.406       .  A
C1426      H1435   1.083       .  S
C1427      C1428   1.410       .  A
C1427      S1431   1.806       .  S
C1428      C1429   1.410       .  A
C1429      C1430   1.401       .  A
C1429      H1436   1.083   1_655  S
C1430      S1432   1.809       .  S
S1431      H3290   1.407       .  S
S1432      H1433   1.407       .  S
H1434      S3287   1.405       .  S
C1437      C1438   1.409       .  A
C1437      C1442   1.423       .  A
C1438      C1439   1.420       .  A
C1438      H1447   1.082   1_554  S
C1439      C1440   1.422       .  A
C1439      S1443   1.807       .  S
C1440      C1441   1.408       .  A
C1441      C1442   1.414       .  A
C1441      H1448   1.084       .  S
C1442      S1444   1.804       .  S
S1443      H1446   1.407       .  S
S1444      H1445   1.407       .  S
C1449      C1450   1.413       .  A
C1449      C1454   1.402       .  A
C1450      C1451   1.390       .  A
C1450      H1459   1.080       .  S
C1451      C1452   1.400       .  A
C1451      S1455   1.800       .  S
C1452      C1453   1.418       .  A
C1453      C1454   1.397       .  A
C1453      H1460   1.080       .  S
C1454      S1456   1.803       .  S
S1455      H1458   1.407       .  S
S1456      H1457   1.407   1_455  S
C1461      C1462   1.413   1_655  A
C1461      C1466   1.409       .  A
C1462      C1463   1.392       .  A
C1462      H1471   1.084       .  S
C1463      C1464   1.403       .  A
C1463      S1467   1.804       .  S
C1464      C1465   1.415   1_455  A
C1465      C1466   1.410       .  A
C1465      H1472   1.084       .  S
C1466      S1468   1.800       .  S
S1467      H1470   1.407       .  S
S1468      H1469   1.406       .  S
C1473      C1474   1.408       .  A
C1473      C1478   1.407       .  A
C1474      C1475   1.391       .  A
C1474      H1483   1.084       .  S
C1475      C1476   1.410       .  A
C1475      S1479   1.805       .  S
C1476      C1477   1.410       .  A
C1477      C1478   1.392       .  A
C1477      H1484   1.083       .  S
C1478      S1480   1.801       .  S
S1479      H1482   1.408       .  S
S1480      H1481   1.407       .  S
C1485      C1486   1.413       .  A
C1485      C1490   1.415       .  A
C1486      C1487   1.406       .  A
C1486      H1495   1.079       .  S
C1487      C1488   1.414       .  A
C1487      S1491   1.801       .  S
C1488      C1489   1.420       .  A
C1489      C1490   1.419       .  A
C1489      H1496   1.082       .  S
C1490      S1492   1.806       .  S
S1491      H1494   1.408       .  S
S1492      H1493   1.407       .  S
C1497      C1498   1.402       .  A
C1497      C1502   1.405       .  A
C1498      C1499   1.403       .  A
C1498      H3363   1.083       .  S
C1499      C1500   1.418       .  A
C1499      S3359   1.801       .  S
C1500      C1501   1.409       .  A
C1501      C1502   1.393       .  A
C1501      H1508   1.083       .  S
C1502      S1504   1.804       .  S
S1503      C3355   1.800   1_554  S
S1503      H1506   1.408   1_554  S
S1504      H1505   1.407   1_455  S
H1507      C3354   1.082   1_554  S
C1509      C1510   1.415       .  A
C1509      C1514   1.421       .  A
C1510      C1511   1.407       .  A
C1510      H1519   1.083       .  S
C1511      C1512   1.410       .  A
C1511      S1515   1.807       .  S
C1512      C1513   1.402       .  A
C1513      C1514   1.401       .  A
C1513      H1520   1.084       .  S
C1514      S1516   1.800       .  S
S1515      H1518   1.403       .  S
S1516      H1517   1.407       .  S
C1521      C1522   1.409       .  A
C1521      C1526   1.412       .  A
C1522      C1523   1.409       .  A
C1522      H1531   1.084       .  S
C1523      C1524   1.413       .  A
C1523      S3383   1.801       .  S
C1524      C2214   1.492       .  S
C1524      C1525   1.407       .  A
C1525      C1526   1.407       .  A
C1525      H1532   1.084       .  S
C1526      S1528   1.801       .  S
S1527      C3379   1.803   1_554  S
S1527      H1530   1.405       .  S
S1528      H1529   1.406       .  S
C1533      C1534   1.413       .  A
C1533      C1538   1.408       .  A
C1534      C1535   1.407       .  A
C1534      H1543   1.084       .  S
C1535      C1536   1.412       .  A
C1535      S1539   1.798       .  S
C1536      C1537   1.414       .  A
C1537      C1538   1.396       .  A
C1537      H1544   1.084       .  S
C1538      S1540   1.803       .  S
S1539      H1542   1.407       .  S
S1540      H1541   1.407       .  S
C1545      C1546   1.405       .  A
C1545      C1550   1.416       .  A
C1546      C1547   1.403       .  A
C1546      H1555   1.084       .  S
C1547      C1548   1.414       .  A
C1547      S1551   1.803   1_554  S
C1548      C2522   1.488       .  S
C1548      C1549   1.406       .  A
C1549      C1550   1.411       .  A
C1549      H1556   1.084       .  S
C1550      S1552   1.801       .  S
S1551      H3410   1.406       .  S
S1552      H1553   1.405       .  S
H1554      S3407   1.406       .  S
C1557      C1558   1.394       .  A
C1557      C1562   1.406       .  A
C1558      C1559   1.398       .  A
C1558      H1567   1.084       .  S
C1559      C1560   1.426       .  A
C1559      S1563   1.801       .  S
C1560      C1561   1.405       .  A
C1561      C1562   1.392       .  A
C1561      H1568   1.083       .  S
C1562      S1564   1.798       .  S
S1563      H1566   1.407       .  S
S1564      H1565   1.406       .  S
C1569      C1570   1.409       .  A
C1569      C1574   1.418       .  A
C1570      C1571   1.405       .  A
C1570      H1579   1.084       .  S
C1571      C1572   1.416       .  A
C1571      S1575   1.804       .  S
C1572      C1573   1.406       .  A
C1573      C1574   1.404       .  A
C1573      H1580   1.084       .  S
C1574      S1576   1.800       .  S
S1575      H1578   1.407       .  S
S1576      H1577   1.407       .  S
C1581      C1582   1.408       .  A
C1581      C1586   1.418       .  A
C1582      C1583   1.392       .  A
C1582      H1591   1.084       .  S
C1583      C1584   1.405       .  A
C1583      S1587   1.791       .  S
C1584      C1585   1.401       .  A
C1585      C1586   1.402       .  A
C1585      H1592   1.080       .  S
C1586      S1588   1.810       .  S
S1587      H1590   1.406       .  S
S1588      H1589   1.406       .  S
C1593      C1594   1.404       .  A
C1593      C1598   1.413       .  A
C1594      C1595   1.403       .  A
C1594      H3459   1.084       .  S
C1595      C1596   1.415       .  A
C1595      S3455   1.800   1_554  S
C1596      C1597   1.402       .  A
C1597      C1598   1.397       .  A
C1597      H1604   1.085       .  S
C1598      S1600   1.799       .  S
S1599      C3451   1.802       .  S
S1599      H1602   1.408       .  S
S1600      H1601   1.407   1_455  S
H1603      C3450   1.084       .  S
C1605      C1606   1.404       .  A
C1605      C1610   1.418       .  A
C1606      C1607   1.409       .  A
C1606      H1615   1.084       .  S
C1607      C1608   1.423       .  A
C1607      S1611   1.804       .  S
C1608      C1609   1.407       .  A
C1609      C1610   1.415       .  A
C1609      H1616   1.083       .  S
C1610      S1612   1.807       .  S
S1611      H1614   1.407       .  S
S1612      H1613   1.407       .  S
C1617      C1618   1.401       .  A
C1617      C1622   1.437       .  A
C1618      C1619   1.405       .  A
C1618      H1627   1.083       .  S
C1619      C1620   1.414       .  A
C1619      S1623   1.800       .  S
C1620      C1621   1.383       .  A
C1621      C1622   1.390       .  A
C1621      H1628   1.084       .  S
C1622      S1624   1.817       .  S
S1623      H1626   1.406       .  S
S1624      H1625   1.407       .  S
C1629      C1630   1.415       .  A
C1629      C1634   1.407       .  A
C1630      C1631   1.386       .  A
C1630      H3495   1.083       .  S
C1631      C1632   1.399       .  A
C1631      S1635   1.804       .  S
C1632      C1633   1.414       .  A
C1633      C1634   1.401       .  A
C1633      H1640   1.084       .  S
C1634      S1636   1.801       .  S
S1635      H1638   1.408       .  S
S1636      H1637   1.404       .  S
H1639      C3486   1.084   1_554  S
C1641      C1642   1.404       .  A
C1641      C1646   1.411       .  A
C1642      C1643   1.399       .  A
C1642      H1651   1.085       .  S
C1643      C1644   1.411       .  A
C1643      S3503   1.803   1_554  S
C1644      C1645   1.401       .  A
C1645      C1646   1.400       .  A
C1645      H1652   1.083       .  S
C1646      S1648   1.804       .  S
S1647      C3499   1.803       .  S
S1647      H3506   1.406       .  S
S1648      H1649   1.405       .  S
H1650      S3503   1.406       .  S
C1653      C1654   1.406       .  A
C1653      C1658   1.420       .  A
C1654      C1655   1.402       .  A
C1654      H3519   1.081       .  S
C1655      C1656   1.422       .  A
C1655      S3515   1.811       .  S
C1656      C1657   1.404       .  A
C1657      C1658   1.405       .  A
C1657      H1664   1.082       .  S
C1658      S1660   1.807       .  S
S1659      C3511   1.795       .  S
S1659      H1662   1.401   1_556  S
S1660      H1661   1.407       .  S
H1663      C3510   1.084       .  S
C1665      C1666   1.407       .  A
C1665      C1670   1.415       .  A
C1666      C1667   1.410       .  A
C1666      H1675   1.084       .  S
C1667      C1668   1.414       .  A
C1667      S1671   1.801       .  S
C1668      C1669   1.404       .  A
C1669      C1670   1.406       .  A
C1669      H1676   1.084       .  S
C1670      S1672   1.801       .  S
S1671      H1674   1.406       .  S
S1672      H1673   1.406       .  S
C1677      C1678   1.409       .  A
C1677      C1682   1.410       .  A
C1678      C1679   1.402       .  A
C1678      H1687   1.085       .  S
C1679      C1680   1.412       .  A
C1679      S1683   1.803       .  S
C1680      C1681   1.410       .  A
C1681      C1682   1.403       .  A
C1681      H1688   1.084       .  S
C1682      S1684   1.802       .  S
S1683      H1686   1.407       .  S
S1684      H1685   1.406       .  S
C1689      C1690   1.398       .  A
C1689      C1694   1.412       .  A
C1690      C1691   1.400       .  A
C1690      H1699   1.083       .  S
C1691      C1692   1.422       .  A
C1691      S1695   1.801       .  S
C1692      C1693   1.405       .  A
C1693      C1694   1.401       .  A
C1693      H1700   1.084       .  S
C1694      S1696   1.802       .  S
S1695      H1698   1.408       .  S
S1696      H3553   1.407       .  S
H1697      S3552   1.407       .  S
C1701      C1702   1.404       .  A
C1701      C1706   1.422       .  A
C1702      C3559   1.406       .  A
C1702      H1711   1.084       .  S
C1703      C1704   1.425       .  A
C1703      C3558   1.409   1_554  A
C1703      S1707   1.804       .  S
C1704      C1705   1.411       .  A
C1705      C3562   1.420   1_554  A
C1705      H1712   1.083       .  S
C1706      C3561   1.418       .  A
C1706      S1708   1.801       .  S
S1707      H1710   1.408       .  S
S1708      H1709   1.407       .  S
C1713      C1714   1.401       .  A
C1713      C1718   1.410       .  A
C1714      C1715   1.396       .  A
C1714      H1723   1.085       .  S
C1715      C1716   1.414       .  A
C1715      S1719   1.803       .  S
C1716      C1717   1.407       .  A
C1717      C1718   1.398       .  A
C1717      H1724   1.084       .  S
C1718      S1720   1.806       .  S
S1719      H1722   1.407       .  S
S1720      H1721   1.401       .  S
C1725      C1726   1.409       .  A
C1725      C1730   1.423       .  A
C1726      C1727   1.407       .  A
C1726      H1735   1.082       .  S
C1727      C1728   1.414       .  A
C1727      S1731   1.808       .  S
C1728      C1729   1.399       .  A
C1729      C1730   1.402       .  A
C1729      H1736   1.084       .  S
C1730      S1732   1.800       .  S
S1731      H1734   1.407       .  S
S1732      H1733   1.408       .  S
C1737      C1738   1.408       .  A
C1737      C1742   1.405       .  A
C1738      C1739   1.404       .  A
C1738      H1747   1.085       .  S
C1739      C1740   1.413       .  A
C1739      S1743   1.803       .  S
C1740      C1741   1.408       .  A
C1741      C1742   1.396       .  A
C1741      H1748   1.084       .  S
C1742      S1744   1.803       .  S
S1743      H1746   1.406       .  S
S1744      H1745   1.406       .  S
C1749      C1750   1.408       .  A
C1749      C1754   1.410       .  A
C1750      C1751   1.398       .  A
C1750      H1759   1.084       .  S
C1751      C1752   1.407       .  A
C1751      S1755   1.800       .  S
C1752      C1753   1.409       .  A
C1753      C1754   1.401       .  A
C1753      H1760   1.085       .  S
C1754      S1756   1.803       .  S
S1755      H1758   1.405       .  S
S1756      H1757   1.407       .  S
C1761      C1762   1.402       .  A
C1761      C1766   1.416       .  A
C1762      C1763   1.405       .  A
C1762      H1771   1.084       .  S
C1763      C1764   1.416       .  A
C1763      S1767   1.802       .  S
C1764      C1765   1.406       .  A
C1765      C1766   1.411       .  A
C1765      H1772   1.084       .  S
C1766      S1768   1.804       .  S
S1767      H1770   1.408       .  S
S1768      H1769   1.407       .  S
C1773      C1774   1.397       .  A
C1773      C1778   1.407       .  A
C1774      C1775   1.399       .  A
C1774      H1783   1.084       .  S
C1775      C1776   1.422       .  A
C1775      S1779   1.801       .  S
C1776      C1777   1.409       .  A
C1777      C1778   1.395       .  A
C1777      H1784   1.083       .  S
C1778      S1780   1.804       .  S
S1779      H1782   1.408       .  S
S1780      H1781   1.405       .  S
C1785      C1786   1.415       .  A
C1785      C1790   1.412       .  A
C1786      C1787   1.411       .  A
C1786      H1795   1.083       .  S
C1787      C1788   1.412       .  A
C1787      S1791   1.800       .  S
C1788      C1789   1.407       .  A
C1789      C1790   1.386       .  A
C1789      H1796   1.084       .  S
C1790      S1792   1.805       .  S
S1791      H1794   1.407   1_655  S
S1792      H1793   1.405       .  S
C1797      C1798   1.403       .  A
C1797      C1802   1.412       .  A
C1798      C1799   1.407       .  A
C1798      H1807   1.084       .  S
C1799      C1800   1.419       .  A
C1799      S1803   1.803       .  S
C1800      C2258   1.498       .  S
C1800      C1801   1.408       .  A
C1801      C1802   1.410       .  A
C1801      H1808   1.083       .  S
C1802      S1804   1.805       .  S
S1803      H1806   1.407       .  S
S1804      H1805   1.407       .  S
C1809      C1810   1.408       .  A
C1809      C1814   1.408       .  A
C1810      C1811   1.398       .  A
C1810      H1819   1.084       .  S
C1811      C1812   1.403       .  A
C1811      S1815   1.798       .  S
C1812      C1813   1.410       .  A
C1813      C1814   1.398       .  A
C1813      H1820   1.085       .  S
C1814      S1816   1.804       .  S
S1815      H1818   1.405       .  S
S1816      H1817   1.406       .  S
C1821      C1822   1.407       .  A
C1821      C1826   1.412       .  A
C1822      C1823   1.396       .  A
C1822      H1831   1.084       .  S
C1823      C1824   1.403       .  A
C1823      S1827   1.802       .  S
C1824      C1825   1.410       .  A
C1825      C1826   1.405       .  A
C1825      H1832   1.085       .  S
C1826      S1828   1.802       .  S
S1827      H1830   1.406       .  S
S1828      H1829   1.406       .  S
C1833      C1834   1.410       .  A
C1833      C1838   1.422       .  A
C1834      C1835   1.410       .  A
C1834      H1843   1.084       .  S
C1835      C1836   1.419       .  A
C1835      S1839   1.803       .  S
C1836      C1837   1.407       .  A
C1837      C1838   1.410       .  A
C1837      H1844   1.084       .  S
C1838      S1840   1.800       .  S
S1839      H1842   1.407       .  S
S1840      H1841   1.406       .  S
C1845      C1846   1.402       .  A
C1845      C1850   1.408       .  A
C1846      C1847   1.391       .  A
C1846      H1855   1.084       .  S
C1847      C1848   1.409       .  A
C1847      S1851   1.803       .  S
C1848      C1849   1.404       .  A
C1849      C1850   1.396       .  A
C1849      H1856   1.084       .  S
C1850      S1852   1.799       .  S
S1851      H1854   1.406       .  S
S1852      H1853   1.406       .  S
O1857     Cr1875   2.019       .  S
O1857      C1865   1.263       .  A
O1858     Cr1875   1.985       .  S
O1858      C1859   1.270       .  A
C1859      O1860   1.271       .  A
C1859      C3689   1.506       .  S
O1860     Cr1876   2.020       .  S
O1861     Cr1876   2.018       .  S
O1861      C1862   1.270       .  A
C1862      O1863   1.259       .  A
C1862      C3653   1.487       .  S
O1863     Cr1877   1.977       .  S
O1864     Cr1877   1.963       .  S
O1864      C1865   1.257       .  A
C1865      C3677   1.481       .  S
O1866     Cr1875   1.991       .  S
O1866      C1874   1.262       .  A
O1867     Cr1875   1.964       .  S
O1867      C1868   1.255       .  A
C1868      O1869   1.264       .  A
C1868      C3668   1.467       .  S
O1869     Cr1876   2.004       .  S
O1870     Cr1876   2.015       .  S
O1870      C1871   1.267       .  A
C1871      O1872   1.254       .  A
C1871      C3641   1.469       .  S
O1872     Cr1877   1.962       .  S
O1873     Cr1877   1.973       .  S
O1873      C1874   1.256       .  A
C1874      C3701   1.462       .  S
Cr1875     O1878   1.787       .  S
Cr1876     O1878   1.786       .  S
Cr1877     O1878   1.775       .  S
O1879     Cr1897   1.997       .  S
O1879      C1887   1.262       .  A
O1880     Cr1897   1.983       .  S
O1880      C1881   1.267       .  A
C1881      O1882   1.266       .  A
C1881      C3692   1.498       .  S
O1882     Cr1898   2.016       .  S
O1883     Cr1898   2.002       .  S
O1883      C1884   1.271       .  A
C1884      O1885   1.268       .  A
C1884      C3617   1.479       .  S
O1885     Cr1899   2.001       .  S
O1886     Cr1899   1.965       .  S
O1886      C1887   1.258       .  A
C1887      C3605   1.475       .  S
O1888     Cr1897   1.970       .  S
O1888      C1896   1.259       .  A
O1889     Cr1897   1.966       .  S
O1889      C1890   1.256       .  A
C1890      O1891   1.268       .  A
C1890      C3593   1.455       .  S
O1891     Cr1898   2.006       .  S
O1892     Cr1898   2.011       .  S
O1892      C1893   1.261       .  A
C1893      O1894   1.259       .  A
C1893      C3581   1.499       .  S
O1894     Cr1899   1.984       .  S
O1895     Cr1899   2.001       .  S
O1895      C1896   1.262       .  A
C1896      C3632   1.489       .  S
Cr1897     O1900   1.781       .  S
Cr1898     O1900   1.782       .  S
Cr1899     O1900   1.773       .  S
O1901     Cr1919   1.963       .  S
O1901      C1909   1.259       .  A
O1902     Cr1919   1.999       .  S
O1902      C1903   1.265       .  A
C1903      O1904   1.277       .  A
C1903      C3521   1.493       .  S
O1904     Cr1920   2.029       .  S
O1905     Cr1920   2.032       .  S
O1905      C1906   1.270       .  A
C1906      O1907   1.272       .  A
C1906      C3557   1.513       .  S
O1907     Cr1921   1.992       .  S
O1908     Cr1921   2.018       .  S
O1908      C1909   1.267       .  A
C1909      C3536   1.489       .  S
O1910     Cr1919   1.981       .  S
O1910      C1918   1.257       .  A
O1911     Cr1919   1.971       .  S
O1911      C1912   1.252       .  A
C1912      O1913   1.266       .  A
C1912      C3509   1.493       .  S
O1913     Cr1920   2.016       .  S
O1914      C1915   1.270       .  A
C1915      C3545   1.464       .  S
O1916     Cr1921   1.975       .  S
O1917     Cr1921   1.979       .  S
O1917      C1918   1.258       .  A
C1918      C3569   1.453       .  S
Cr1919     O1922   1.776       .  S
Cr1920     O1922   1.777       .  S
Cr1921     O1922   1.784       .  S
O1923     Cr1941   2.004       .  S
O1923      C1931   1.270       .  A
O1924     Cr1941   1.973       .  S
O1924      C1925   1.264       .  A
C1925      O1926   1.286       .  A
C1925      C3464   1.518       .  S
O1926     Cr1942   2.081       .  S
O1927     Cr1942   2.017       .  S
O1927      C1928   1.279       .  A
C1928      O1929   1.268       .  A
C1928      C3560   1.514       .  S
O1929     Cr1943   2.014       .  S
O1930     Cr1943   1.953       .  S
O1930      C1931   1.261       .  A
C1931      C3476   1.449       .  S
O1932     Cr1941   1.991       .  S
O1932      C1940   1.254       .  A
O1933     Cr1941   1.983       .  S
O1933      C1934   1.262       .  A
C1934      O1935   1.259       .  A
C1934      C3452   1.471       .  S
O1935     Cr1942   1.982       .  S
O1936     Cr1942   2.059       .  S
C1937      C3485   1.466       .  S
O1938     Cr1943   1.946       .  S
O1939     Cr1943   1.968       .  S
O1939      C1940   1.252       .  A
C1940      C3497   1.456       .  S
Cr1941     O1944   1.764       .  S
Cr1942     O1944   1.793       .  S
Cr1943     O1944   1.747       .  S
O1945     Cr1963   2.004       .  S
O1945      C1953   1.262       .  A
O1946     Cr1963   1.988       .  S
O1946      C1947   1.267       .  A
C1947      O1948   1.261       .  A
C1947      C3425   1.494       .  S
O1948     Cr1964   1.996       .  S
O1949     Cr1964   2.021       .  S
O1949      C1950   1.274       .  A
C1950      O1951   1.266       .  A
C1950      C3401   1.490       .  S
O1951     Cr1965   1.994       .  S
O1952     Cr1965   1.964       .  S
O1952      C1953   1.256       .  A
C1953      C3548   1.486       .  S
O1954     Cr1963   1.971       .  S
O1954      C1962   1.257       .  A
O1955     Cr1963   1.962       .  S
O1955      C1956   1.256       .  A
C1956      O1957   1.275       .  A
C1956      C3533   1.472       .  S
O1957     Cr1964   2.027       .  S
O1958     Cr1964   1.999       .  S
O1958      C1959   1.259       .  A
C1959      O1960   1.258       .  A
C1959      C3413   1.471       .  S
O1960     Cr1965   1.988       .  S
O1961     Cr1965   1.998       .  S
O1961      C1962   1.262       .  A
C1962      C3437   1.480       .  S
Cr1963     O1966   1.784       .  S
Cr1964     O1966   1.782       .  S
Cr1965     O1966   1.774       .  S
O1967     Cr1985   1.965       .  S
O1967      C1975   1.252       .  A
O1968     Cr1985   1.990       .  S
O1968      C1969   1.270       .  A
C1969      O1970   1.264       .  A
C1969      C3428   1.487       .  S
O1970     Cr1986   2.000       .  S
O1971     Cr1986   2.017       .  S
O1971      C1972   1.272       .  A
C1972      O1973   1.264       .  A
C1972      C3377   1.484       .  S
O1973     Cr1987   1.989       .  S
O1974     Cr1987   1.975       .  S
O1974      C1975   1.260       .  A
C1975      C3488   1.462       .  S
O1976     Cr1985   2.006       .  S
O1976      C1984   1.269       .  A
O1977     Cr1985   1.938       .  S
O1977      C1978   1.238       .  A
C1978      O1979   1.274       .  A
C1978      C3473   1.477       .  S
O1979     Cr1986   2.042       .  S
O1980     Cr1986   1.990       .  S
O1980      C1981   1.260       .  A
C1981      O1982   1.259       .  A
C1981      C3368   1.479       .  S
O1982     Cr1987   1.992       .  S
O1983     Cr1987   1.992       .  S
O1983      C1984   1.263       .  A
C1984      C3389   1.495       .  S
Cr1985     O1988   1.780       .  S
Cr1986     O1988   1.779       .  S
Cr1987     O1988   1.771       .  S
O1989      C1997   1.262       .  A
O1990      C1991   1.260       .  A
C1991      C3293   1.508       .  S
O1992     Cr2008   2.097       .  S
O1993     Cr2008   2.002       .  S
O1993      C1994   1.270       .  A
C1994      O1995   1.271       .  A
C1994      C3341   1.506       .  S
O1995     Cr2009   2.025       .  S
O1996     Cr2009   1.980       .  S
C1997      C3305   1.487   1_655  S
O1998     Cr2007   1.998       .  S
O1998      C2006   1.262       .  A
O1999     Cr2007   1.974       .  S
O1999      C2000   1.258       .  A
C2000      O2001   1.262       .  A
C2000      C3329   1.477       .  S
O2001     Cr2008   1.991       .  S
O2002     Cr2008   2.086       .  S
O2002      C2003   1.277       .  A
C2003      O2004   1.243       .  A
C2003      C3317   1.495       .  S
O2004     Cr2009   1.940       .  S
O2005     Cr2009   1.984   1_455  S
O2005      C2006   1.258   1_455  A
C2006      C3353   1.462   1_655  S
Cr2007     O2010   1.762       .  S
Cr2008     O2010   1.786       .  S
Cr2009     O2010   1.761       .  S
O2011     Cr2029   1.959       .  S
O2011      C2019   1.255       .  A
O2012     Cr2029   1.996       .  S
O2012      C2013   1.265       .  A
C2013      O2014   1.275       .  A
C2013      C3257   1.490       .  S
O2014     Cr2030   2.022       .  S
O2015     Cr2030   2.023       .  S
O2015      C2016   1.270       .  A
C2016      O2017   1.270       .  A
C2016      C3344   1.513       .  S
O2017     Cr2031   1.987       .  S
O2018     Cr2031   1.990       .  S
O2018      C2019   1.260       .  A
C2019      C3269   1.478       .  S
O2020     Cr2029   2.008       .  S
O2020      C2028   1.264       .  A
O2021     Cr2029   1.961       .  S
O2021      C2022   1.253       .  A
C2022      O2023   1.261       .  A
C2022      C3704   1.459       .  S
O2023     Cr2030   1.989       .  S
O2024     Cr2030   2.012       .  S
O2024      C2025   1.266       .  A
C2025      O2026   1.251       .  A
C2025      C3281   1.456       .  S
O2026     Cr2031   1.959       .  S
O2027     Cr2031   1.981       .  S
O2027      C2028   1.261       .  A
C2028      C3365   1.486   1_655  S
Cr2029     O2032   1.777       .  S
Cr2030     O2032   1.777       .  S
Cr2031     O2032   1.777       .  S
O2033     Cr2051   1.959       .  S
O2033      C2041   1.256       .  A
O2034     Cr2051   1.990       .  S
O2034      C2035   1.265       .  A
C2035      O2036   1.274       .  A
C2035      C3209   1.488       .  S
O2036     Cr2052   2.017       .  S
O2037     Cr2052   2.042       .  S
O2037      C2038   1.275       .  A
C2038      O2039   1.271       .  A
C2038      C3248   1.516       .  S
O2039     Cr2053   1.990       .  S
O2040     Cr2053   2.004       .  S
O2040      C2041   1.260       .  A
C2041      C3221   1.476       .  S
O2042     Cr2051   1.999       .  S
O2042      C2050   1.261       .  A
O2043     Cr2051   1.961       .  S
O2043      C2044   1.252       .  A
C2044      O2045   1.263       .  A
C2044      C3629   1.462       .  S
O2045     Cr2052   2.012       .  S
O2046     Cr2052   2.018       .  S
O2046      C2047   1.267       .  A
C2047      O2048   1.250       .  A
C2047      C3236   1.462       .  S
O2048     Cr2053   1.966       .  S
O2049     Cr2053   1.989       .  S
O2049      C2050   1.265       .  A
C2050      C3416   1.491       .  S
Cr2051     O2054   1.773       .  S
Cr2052     O2054   1.781       .  S
Cr2053     O2054   1.781       .  S
O2055      C2063   1.259       .  A
O2056      C2057   1.263       .  A
C2057      C3152   1.494       .  S
O2058     Cr2074   2.060       .  S
O2059     Cr2074   1.991       .  S
O2059      C2060   1.267       .  A
C2060      O2061   1.267       .  A
C2060      C3245   1.523       .  S
O2061     Cr2075   2.017       .  S
O2062     Cr2075   1.980       .  S
C2063      C3161   1.470       .  S
O2064     Cr2073   2.010       .  S
O2064      C2072   1.265       .  A
O2065     Cr2073   1.969       .  S
O2065      C2066   1.253       .  A
C2066      O2067   1.256       .  A
C2066      C3185   1.463       .  S
O2067     Cr2074   1.988       .  S
O2068     Cr2074   2.025       .  S
O2068      C2069   1.270       .  A
C2069      O2070   1.249       .  A
C2069      C3173   1.464       .  S
O2070     Cr2075   1.935       .  S
O2071     Cr2075   2.002       .  S
O2071      C2072   1.260       .  A
C2072      C3197   1.479       .  S
Cr2073     O2076   1.767       .  S
Cr2074     O2076   1.790       .  S
Cr2075     O2076   1.772       .  S
O2077     Cr2095   2.016       .  S
O2077      C2085   1.259       .  A
O2078     Cr2095   1.981       .  S
O2078      C2079   1.268       .  A
C2079      O2080   1.267       .  A
C2079      C3137   1.495       .  S
O2080     Cr2096   2.018       .  S
O2081     Cr2096   2.028       .  S
O2081      C2082   1.272       .  A
C2082      O2083   1.257       .  A
C2082      C3101   1.484       .  S
O2083     Cr2097   1.976       .  S
O2084     Cr2097   1.952       .  S
O2084      C2085   1.246       .  A
C2085      C3125   1.484       .  S
O2086     Cr2095   1.974       .  S
O2086      C2094   1.260       .  A
O2087     Cr2095   1.962       .  S
C2088      O2089   1.276       .  A
C2088      C3113   1.490       .  S
O2090     Cr2096   2.025       .  S
O2090      C2091   1.271       .  A
C2091      O2092   1.257       .  A
C2091      C3089   1.487       .  S
O2092     Cr2097   1.968       .  S
O2093     Cr2097   1.990       .  S
O2093      C2094   1.260       .  A
C2094      C3332   1.476       .  S
Cr2095     O2098   1.790       .  S
Cr2096     O2098   1.773       .  S
Cr2097     O2098   1.768       .  S
O2099     Cr2117   2.005       .  S
O2099      C2107   1.260       .  A
O2100     Cr2117   1.987       .  S
O2100      C2101   1.269       .  A
C2101      O2102   1.267       .  A
C2101      C3140   1.498       .  S
O2102     Cr2118   2.012       .  S
O2103     Cr2118   2.017       .  S
O2103      C2104   1.272       .  A
C2104      O2105   1.265       .  A
C2104      C3080   1.491       .  S
O2105     Cr2119   1.995       .  S
O2106     Cr2119   1.960       .  S
O2106      C2107   1.257       .  A
C2107      C3068   1.480       .  S
O2108     Cr2117   1.986       .  S
O2108      C2116   1.262       .  A
O2109     Cr2117   1.971       .  S
C2110      C3053   1.464   1_554  S
O2111     Cr2118   2.006       .  S
O2112     Cr2118   1.999       .  S
O2112      C2113   1.262       .  A
C2113      O2114   1.253       .  A
C2113      C3041   1.467       .  S
O2114     Cr2119   1.970       .  S
O2115     Cr2119   1.985       .  S
O2115      C2116   1.257       .  A
C2116      C3188   1.460       .  S
Cr2117     O2120   1.791       .  S
Cr2118     O2120   1.782       .  S
Cr2119     O2120   1.779       .  S
O2121      C2129   1.248       .  A
O2122      C2123   1.259       .  A
C2123      C2981   1.506       .  S
O2124     Cr2140   2.098       .  S
O2125     Cr2140   2.002       .  S
O2125      C2126   1.272       .  A
C2126      O2127   1.269       .  A
C2126      C3005   1.505       .  S
O2127     Cr2141   2.008       .  S
O2128     Cr2141   1.991       .  S
C2129      C3017   1.473   1_455  S
O2130     Cr2139   2.008       .  S
O2130      C2138   1.268       .  A
O2131     Cr2139   1.960       .  S
O2131      C2132   1.248       .  A
C2132      O2133   1.261       .  A
C2132      C2996   1.484       .  S
O2133     Cr2140   2.023       .  S
O2134     Cr2140   2.049       .  S
O2134      C2135   1.270       .  A
C2135      O2136   1.246       .  A
C2135      C3032   1.481       .  S
O2136     Cr2141   1.937       .  S
O2137     Cr2141   1.991       .  S
O2137      C2138   1.264       .  A
C2138      C3092   1.481   1_455  S
Cr2139     O2142   1.765       .  S
Cr2140     O2142   1.790       .  S
Cr2141     O2142   1.759       .  S
O2143     Cr2161   2.005       .  S
O2143      C2151   1.269       .  A
O2144     Cr2161   1.971       .  S
O2144      C2145   1.262       .  A
C2145      O2146   1.286       .  A
C2145      C3461   1.514       .  S
O2146     Cr2162   2.080       .  S
O2147     Cr2162   2.022       .  S
O2147      C2148   1.276       .  A
C2148      O2149   1.271       .  A
C2148      C3008   1.521       .  S
O2149     Cr2163   2.025       .  S
O2150     Cr2163   1.971       .  S
O2150      C2151   1.263       .  A
C2151      C2957   1.461   1_455  S
O2152     Cr2161   1.999       .  S
O2152      C2160   1.260   1_455  A
O2153     Cr2161   2.001       .  S
O2153      C2154   1.263       .  A
C2154      O2155   1.265       .  A
C2154      C3392   1.494       .  S
O2155     Cr2162   1.999       .  S
O2156     Cr2162   2.073       .  S
O2156      C2157   1.271       .  A
C2157      O2158   1.240       .  A
C2157      C2969   1.484       .  S
O2158     Cr2163   1.944       .  S
O2159     Cr2163   1.982   1_655  S
O2159      C2160   1.256       .  A
C2160      C3644   1.469       .  S
Cr2161     O2164   1.767       .  S
Cr2162     O2164   1.792       .  S
Cr2163     O2164   1.757       .  S
O2165     Cr2183   2.005       .  S
O2165      C2173   1.271       .  A
O2166     Cr2183   2.013       .  S
O2166      C2167   1.271       .  A
C2167      O2168   1.270       .  A
C2167      C2909   1.511       .  S
O2168     Cr2184   1.997       .  S
O2169     Cr2184   2.053       .  S
O2169      C2170   1.278       .  A
C2170      O2171   1.260       .  A
C2170      C2924   1.489       .  S
O2171     Cr2185   1.955       .  S
O2172     Cr2185   1.944       .  S
O2172      C2173   1.251       .  A
C2173      C2945   1.489       .  S
O2174     Cr2183   1.993       .  S
O2174      C2182   1.264       .  A
O2175     Cr2183   1.941       .  S
C2176      O2177   1.261       .  A
C2176      C2933   1.472       .  S
O2178     Cr2184   1.999       .  S
O2178      C2179   1.255       .  A
C2179      O2180   1.251       .  A
C2179      C3356   1.488       .  S
O2180     Cr2185   1.970       .  S
O2181     Cr2185   1.997       .  S
O2181      C2182   1.266       .  A
C2182      C2993   1.472       .  S
Cr2183     O2186   1.770       .  S
Cr2184     O2186   1.790       .  S
Cr2185     O2186   1.768       .  S
O2187     Cr2205   1.999       .  S
O2187      C2195   1.259       .  A
O2188     Cr2205   1.978       .  S
O2188      C2189   1.266       .  A
C2189      O2190   1.271       .  A
C2189      C2912   1.516       .  S
O2190     Cr2206   2.035       .  S
O2191     Cr2206   2.019       .  S
O2191      C2192   1.273       .  A
C2192      O2193   1.265       .  A
C2192      C2861   1.491       .  S
O2193     Cr2207   1.997       .  S
O2194     Cr2207   1.967       .  S
O2194      C2195   1.259       .  A
C2195      C2885   1.487       .  S
O2196     Cr2205   1.972       .  S
O2196      C2204   1.260       .  A
O2197     Cr2205   1.970       .  S
C2198      C2873   1.472       .  S
O2199     Cr2206   2.011       .  S
O2200     Cr2206   2.015       .  S
O2200      C2201   1.266       .  A
C2201      O2202   1.253       .  A
C2201      C3200   1.479       .  S
O2202     Cr2207   1.966       .  S
O2203     Cr2207   1.986       .  S
O2203      C2204   1.262       .  A
C2204      C2897   1.481       .  S
Cr2205     O2208   1.784       .  S
Cr2206     O2208   1.785       .  S
Cr2207     O2208   1.779       .  S
O2209     Cr2227   2.019       .  S
O2210     Cr2227   2.004       .  S
O2210      C2211   1.274       .  A
C2211      O2212   1.269       .  A
C2211      C2840   1.492       .  S
O2212     Cr2228   2.011       .  S
O2213     Cr2228   2.012       .  S
O2213      C2214   1.270       .  A
O2216      C2217   1.252       .  A
C2217      C3284   1.481       .  S
O2218     Cr2227   1.991       .  S
O2218      C2226   1.265   1_455  A
O2219     Cr2227   1.975       .  S
O2219      C2220   1.256       .  A
C2220      O2221   1.264       .  A
C2220      C3272   1.465       .  S
O2221     Cr2228   2.009       .  S
O2222     Cr2228   2.001       .  S
O2222      C2223   1.262       .  A
C2223      O2224   1.251       .  A
C2223      C3500   1.460       .  S
O2224     Cr2229   1.957       .  S
O2225     Cr2229   2.004       .  S
O2225      C2226   1.262   1_455  A
C2226      C2852   1.495       .  S
Cr2227     O2230   1.782       .  S
Cr2228     O2230   1.777       .  S
Cr2229     O2230   1.770       .  S
O2231     Cr2249   2.012       .  S
O2231      C2239   1.264       .  A
O2232     Cr2249   1.997       .  S
O2232      C2233   1.269       .  A
C2233      O2234   1.263       .  A
C2233      C2837   1.495       .  S
O2234     Cr2250   2.005       .  S
O2235     Cr2250   2.007       .  S
O2235      C2236   1.269       .  A
C2236      O2237   1.264       .  A
C2236      C2921   1.478       .  S
O2237     Cr2251   1.991       .  S
O2238     Cr2251   1.974       .  S
O2238      C2239   1.260       .  A
C2239      C3320   1.484       .  S
O2240     Cr2249   1.986       .  S
O2240      C2248   1.262       .  A
O2241     Cr2249   1.979       .  S
O2241      C2242   1.261       .  A
C2242      O2243   1.270       .  A
C2242      C3308   1.470       .  S
O2243     Cr2250   2.001       .  S
O2244     Cr2250   2.016       .  S
O2244      C2245   1.266       .  A
C2245      O2246   1.259       .  A
C2245      C2816   1.498       .  S
O2246     Cr2251   1.984       .  S
O2247     Cr2251   1.994       .  S
O2247      C2248   1.263       .  A
C2248      C2828   1.491   1_455  S
Cr2249     O2252   1.782       .  S
Cr2250     O2252   1.784       .  S
Cr2251     O2252   1.773       .  S
O2253     Cr2271   1.980       .  S
O2254     Cr2271   2.023       .  S
O2254      C2255   1.270       .  A
C2255      O2256   1.267       .  A
C2255      C2801   1.492       .  S
O2256     Cr2272   1.992       .  S
O2257     Cr2272   2.058       .  S
O2257      C2258   1.282       .  A
O2260      C2261   1.250       .  A
C2261      C2972   1.462       .  S
O2262     Cr2271   2.001       .  S
O2262      C2270   1.265       .  A
O2263     Cr2271   1.921       .  S
O2263      C2264   1.240       .  A
C2264      O2265   1.265       .  A
C2264      C2960   1.472       .  S
O2265     Cr2272   2.036       .  S
O2266     Cr2272   2.001       .  S
O2266      C2267   1.261       .  A
C2267      O2268   1.256       .  A
C2267      C2789   1.479       .  S
O2268     Cr2273   1.976       .  S
O2269     Cr2273   1.981       .  S
O2269      C2270   1.261       .  A
C2270      C3449   1.464   1_655  S
Cr2271     O2274   1.769       .  S
Cr2272     O2274   1.785       .  S
Cr2273     O2274   1.767       .  S
O2275     Cr2293   1.970       .  S
O2275      C2283   1.257       .  A
O2276     Cr2293   2.024       .  S
O2276      C2277   1.269       .  A
C2277      O2278   1.266       .  A
C2277      C2804   1.497       .  S
O2278     Cr2294   1.993       .  S
O2279     Cr2294   2.058       .  S
O2279      C2280   1.281       .  A
C2280      O2281   1.261       .  A
C2280      C3104   1.505       .  S
O2281     Cr2295   1.962       .  S
O2282     Cr2295   1.994       .  S
O2282      C2283   1.265       .  A
C2283      C3029   1.459       .  S
O2284     Cr2293   2.030       .  S
O2284      C2292   1.272   1_655  A
O2285     Cr2293   1.917       .  S
O2285      C2286   1.247       .  A
C2286      O2287   1.266       .  A
C2286      C3020   1.446       .  S
O2287     Cr2294   2.015       .  S
O2288     Cr2294   1.976       .  S
O2288      C2289   1.253       .  A
C2289      O2290   1.261       .  A
C2289      C2765   1.499       .  S
O2290     Cr2295   2.009       .  S
O2291     Cr2295   1.977       .  S
O2291      C2292   1.258   1_655  A
C2292      C2780   1.499       .  S
Cr2293     O2296   1.775       .  S
Cr2294     O2296   1.775       .  S
Cr2295     O2296   1.769       .  S
O2297     Cr2315   1.971       .  S
O2297      C2305   1.261       .  A
O2298     Cr2315   1.999       .  S
O2298      C2299   1.266       .  A
C2299      O2300   1.272       .  A
C2299      C3260   1.491       .  S
O2300     Cr2316   2.013       .  S
O2301     Cr2316   2.017       .  S
O2301      C2302   1.267       .  A
C2302      O2303   1.266       .  A
C2302      C2753   1.500       .  S
O2303     Cr2317   1.980       .  S
O2304     Cr2317   1.988       .  S
O2304      C2305   1.258       .  A
C2305      C3665   1.467       .  S
O2306     Cr2315   1.996       .  S
O2306      C2314   1.262       .  A
O2307     Cr2315   1.980       .  S
O2307      C2308   1.257       .  A
C2308      O2309   1.263       .  A
C2308      C2849   1.473       .  S
O2309     Cr2316   2.013       .  S
O2310     Cr2316   2.013       .  S
C2311      C3680   1.470       .  S
O2312     Cr2317   1.965       .  S
O2313     Cr2317   1.978       .  S
O2313      C2314   1.260       .  A
C2314      C2792   1.491       .  S
Cr2315     O2318   1.778       .  S
Cr2316     O2318   1.789       .  S
Cr2317     O2318   1.785       .  S
O2319     Cr2337   1.961       .  S
O2319      C2327   1.256       .  A
O2320     Cr2337   1.994       .  S
O2320      C2321   1.265       .  A
C2321      O2322   1.271       .  A
C2321      C3212   1.489       .  S
O2322     Cr2338   2.012       .  S
O2323     Cr2338   2.020       .  S
O2323      C2324   1.272       .  A
C2324      O2325   1.270       .  A
C2324      C2756   1.499       .  S
O2325     Cr2339   1.985       .  S
O2326     Cr2339   2.003       .  S
O2326      C2327   1.260       .  A
C2327      C3596   1.479       .  S
O2328     Cr2337   2.000       .  S
O2328      C2336   1.260       .  A
O2329     Cr2337   1.966       .  S
O2329      C2330   1.254       .  A
C2330      O2331   1.263       .  A
C2330      C2732   1.466       .  S
O2331     Cr2338   2.010       .  S
O2332      C2333   1.267       .  A
C2333      C3608   1.464       .  S
O2334     Cr2339   1.967       .  S
O2335     Cr2339   1.972       .  S
O2335      C2336   1.262       .  A
C2336      C2741   1.483       .  S
Cr2337     O2340   1.775       .  S
Cr2338     O2340   1.777       .  S
Cr2339     O2340   1.783       .  S
O2341     Cr2359   1.962       .  S
O2341      C2349   1.257       .  A
O2342     Cr2359   2.011       .  S
O2342      C2343   1.266       .  A
C2343      O2344   1.273       .  A
C2343      C3524   1.496       .  S
O2344     Cr2360   2.024       .  S
O2345     Cr2360   2.005       .  S
O2345      C2346   1.261       .  A
C2346      O2347   1.262       .  A
C2346      C2693   1.505       .  S
O2347     Cr2361   1.977       .  S
O2348     Cr2361   1.984       .  S
O2348      C2349   1.261       .  A
C2349      C2708   1.457       .  S
O2350     Cr2359   1.992       .  S
O2350      C2358   1.259       .  A
O2351     Cr2359   1.964       .  S
O2351      C2352   1.252       .  A
C2352      O2353   1.266       .  A
C2352      C3440   1.472       .  S
O2353     Cr2360   2.018       .  S
O2354     Cr2360   2.018       .  S
O2354      C2355   1.275       .  A
C2355      O2356   1.259       .  A
C2355      C2720   1.481       .  S
O2356     Cr2361   1.960       .  S
O2357     Cr2361   1.990       .  S
O2357      C2358   1.261       .  A
C2358      C3584   1.484       .  S
Cr2359     O2362   1.773       .  S
Cr2360     O2362   1.787       .  S
Cr2361     O2362   1.777       .  S
O2363      C2371   1.265   1_556  A
C2365      O2366   1.287       .  A
O2366     Cr2382   2.089       .  S
O2367     Cr2382   1.990       .  S
O2367      C2368   1.269       .  A
C2368      O2369   1.267       .  A
C2368      C2696   1.505       .  S
O2369     Cr2383   2.011       .  S
O2370     Cr2383   1.957       .  S
C2371      C2672   1.452   1_554  S
O2372     Cr2381   1.985       .  S
O2372      C2380   1.258       .  A
O2373     Cr2381   1.981       .  S
O2373      C2374   1.260       .  A
C2374      O2375   1.262       .  A
C2374      C2900   1.464       .  S
O2375     Cr2382   1.985       .  S
O2376     Cr2382   2.084       .  S
O2376      C2377   1.274       .  A
C2377      O2378   1.239       .  A
C2377      C2681   1.495       .  S
O2378     Cr2383   1.942       .  S
O2379     Cr2383   1.992       .  S
O2379      C2380   1.260       .  A
C2380      C3044   1.461       .  S
Cr2381     O2384   1.759       .  S
Cr2382     O2384   1.782       .  S
Cr2383     O2384   1.750       .  S
O2385     Cr2403   1.959       .  S
O2385      C2393   1.257       .  A
O2386     Cr2403   2.001       .  S
O2386      C2387   1.265       .  A
C2387      O2388   1.279       .  A
C2387      C2660   1.502       .  S
O2388     Cr2404   2.036       .  S
O2389     Cr2404   2.019       .  S
O2389      C2390   1.268       .  A
C2390      O2391   1.269       .  A
C2390      C2636   1.511       .  S
O2391     Cr2405   1.986       .  S
O2392     Cr2405   2.002       .  S
O2392      C2393   1.263       .  A
C2393      C2876   1.469       .  S
O2394     Cr2403   1.991       .  S
O2394      C2402   1.261       .  A
O2395     Cr2403   1.970       .  S
O2395      C2396   1.255       .  A
C2396      O2397   1.262       .  A
C2396      C2621   1.472       .  S
O2397     Cr2404   2.000       .  S
O2398     Cr2404   2.026       .  S
O2398      C2399   1.271       .  A
C2399      O2400   1.252       .  A
C2399      C2888   1.469       .  S
O2400     Cr2405   1.962       .  S
O2401     Cr2405   1.980       .  S
O2401      C2402   1.258       .  A
C2402      C2645   1.481       .  S
Cr2403     O2406   1.777       .  S
Cr2404     O2406   1.778       .  S
Cr2405     O2406   1.786       .  S
O2407     Cr2425   1.943       .  S
O2407      C2415   1.245       .  A
O2408     Cr2425   1.996       .  S
O2408      C2409   1.263       .  A
C2409      O2410   1.279       .  A
C2409      C2984   1.504       .  S
O2410     Cr2426   2.047       .  S
O2411     Cr2426   2.017       .  S
O2411      C2412   1.266       .  A
C2412      O2413   1.270       .  A
C2412      C2633   1.504       .  S
O2413     Cr2427   1.987       .  S
O2414     Cr2427   2.025       .  S
O2414      C2415   1.263       .  A
C2415      C2936   1.480       .  S
O2416     Cr2425   2.014       .  S
O2416      C2424   1.265       .  A
O2417     Cr2425   1.984       .  S
O2417      C2418   1.262       .  A
C2418      O2419   1.266       .  A
C2418      C2777   1.494       .  S
O2419     Cr2426   2.013       .  S
O2420     Cr2426   2.020       .  S
O2420      C2421   1.274       .  A
C2421      O2422   1.255       .  A
C2421      C2948   1.461       .  S
O2422     Cr2427   1.976       .  S
O2423     Cr2427   1.984       .  S
O2423      C2424   1.261       .  A
C2424      C2813   1.487       .  S
Cr2425     O2428   1.762       .  S
Cr2426     O2428   1.773       .  S
Cr2427     O2428   1.796       .  S
O2429     Cr2447   2.011   1_554  S
O2430     Cr2447   2.016       .  S
O2430      C2431   1.273       .  A
C2431      O2432   1.262       .  A
C2431      C2612   1.501       .  S
O2432     Cr2448   1.984       .  S
O2433     Cr2448   2.076       .  S
C2434      O2435   1.276       .  A
C2434      C3620   1.493       .  S
O2436      C2437   1.242       .  A
C2437      C2717   1.481       .  S
O2438     Cr2447   2.024       .  S
O2438      C2446   1.279       .  A
O2439     Cr2447   1.927       .  S
O2439      C2440   1.248       .  A
C2440      O2441   1.266       .  A
C2440      C2705   1.459       .  S
O2441     Cr2448   2.002       .  S
O2442     Cr2448   1.994       .  S
O2442      C2443   1.248       .  A
C2443      O2444   1.236       .  A
C2443      C2744   1.480       .  S
O2444     Cr2449   1.956       .  S
O2445     Cr2449   1.989       .  S
O2445      C2446   1.276       .  A
C2446      C3512   1.491       .  S
Cr2447     O2450   1.791       .  S
Cr2448     O2450   1.777       .  S
Cr2449     O2450   1.766       .  S
O2451     Cr2469   1.983       .  S
O2451      C2459   1.264       .  A
O2452     Cr2469   2.039       .  S
O2452      C2453   1.273       .  A
C2453      O2454   1.271       .  A
C2453      C2609   1.499       .  S
O2454     Cr2470   2.002       .  S
O2455     Cr2470   2.066       .  S
O2455      C2456   1.281       .  A
C2456      O2457   1.260       .  A
C2456      C3077   1.506       .  S
O2457     Cr2471   1.963       .  S
O2458     Cr2471   1.990       .  S
O2458      C2459   1.265       .  A
C2459      C2684   1.469       .  S
O2460     Cr2469   1.993       .  S
O2460      C2468   1.261       .  A
O2461     Cr2469   1.937       .  S
O2461      C2462   1.238       .  A
C2462      O2463   1.265       .  A
C2462      C2669   1.471       .  S
O2463     Cr2470   2.040       .  S
O2464     Cr2470   1.993       .  S
O2464      C2465   1.260       .  A
C2465      O2466   1.262       .  A
C2465      C2597   1.484       .  S
O2466     Cr2471   2.000       .  S
O2467     Cr2471   1.983       .  S
O2467      C2468   1.259       .  A
C2468      C2624   1.462       .  S
Cr2469     O2472   1.762       .  S
Cr2470     O2472   1.787       .  S
Cr2471     O2472   1.759       .  S
O2473     Cr2491   1.989       .  S
O2473      C2481   1.265       .  A
O2474     Cr2491   1.976       .  S
O2474      C2475   1.262       .  A
C2475      O2476   1.280       .  A
C2475      C3296   1.507       .  S
O2476     Cr2492   2.059       .  S
O2477     Cr2492   2.029       .  S
O2477      C2478   1.278       .  A
C2478      O2479   1.265       .  A
C2478      C2585   1.524       .  S
O2479     Cr2493   2.010       .  S
O2480     Cr2493   1.975       .  S
O2480      C2481   1.265       .  A
C2481      C3116   1.459       .  S
O2482     Cr2491   2.007       .  S
O2482      C2490   1.262       .  A
O2483     Cr2491   1.993       .  S
O2483      C2484   1.261       .  A
C2484      O2485   1.262       .  A
C2484      C2825   1.487       .  S
O2485     Cr2492   1.992       .  S
O2486     Cr2492   2.040       .  S
O2486      C2487   1.267       .  A
C2487      O2488   1.250       .  A
C2487      C3128   1.476       .  S
O2488     Cr2493   1.941       .  S
O2489     Cr2493   1.985       .  S
O2489      C2490   1.256       .  A
C2490      C2768   1.473       .  S
Cr2491     O2494   1.772       .  S
Cr2492     O2494   1.790       .  S
Cr2493     O2494   1.759       .  S
O2495     Cr2513   1.960       .  S
O2495      C2503   1.254       .  A
O2496     Cr2513   2.005       .  S
O2496      C2497   1.270       .  A
C2497      O2498   1.274       .  A
C2497      C3149   1.490       .  S
O2498     Cr2514   2.018       .  S
O2499     Cr2514   2.026       .  S
O2499      C2500   1.265       .  A
C2500      O2501   1.270       .  A
C2500      C2588   1.515       .  S
O2501     Cr2515   1.994       .  S
O2502     Cr2515   2.017       .  S
O2502      C2503   1.268       .  A
C2503      C3056   1.496       .  S
O2504     Cr2513   2.014       .  S
O2504      C2512   1.266       .  A
O2505     Cr2513   1.990       .  S
O2505      C2506   1.260       .  A
C2506      O2507   1.266       .  A
C2506      C2573   1.504       .  S
O2507     Cr2514   2.032       .  S
O2508     Cr2514   2.011       .  S
O2508      C2509   1.274       .  A
C2509      O2510   1.260       .  A
C2509      C3065   1.463       .  S
O2510     Cr2515   1.970       .  S
O2511     Cr2515   1.969       .  S
O2511      C2512   1.256       .  A
C2512      C2600   1.497       .  S
Cr2513     O2516   1.773       .  S
Cr2514     O2516   1.785       .  S
Cr2515     O2516   1.783       .  S
O2517     Cr2535   2.009       .  S
O2518     Cr2535   1.992       .  S
O2518      C2519   1.271       .  A
C2519      O2520   1.264       .  A
C2519      C2561   1.493       .  S
O2520     Cr2536   1.996       .  S
O2521     Cr2536   2.013       .  S
O2521      C2522   1.271   1_556  A
O2524      C2525   1.257       .  A
C2525      C3233   1.489       .  S
O2526     Cr2535   1.982       .  S
O2526      C2534   1.260       .  A
O2527     Cr2535   1.965       .  S
O2527      C2528   1.255       .  A
C2528      O2529   1.270       .  A
C2528      C3224   1.463       .  S
O2529     Cr2536   2.014       .  S
O2530     Cr2536   2.001       .  S
O2530      C2531   1.260       .  A
C2531      O2532   1.253       .  A
C2531      C3572   1.470       .  S
O2532     Cr2537   1.961       .  S
O2533     Cr2537   2.001       .  S
O2533      C2534   1.259       .  A
C2534      C2729   1.492       .  S
Cr2535     O2538   1.780       .  S
Cr2536     O2538   1.780       .  S
Cr2537     O2538   1.770       .  S
O2539     Cr2557   1.977       .  S
O2539      C2547   1.257       .  A
O2540     Cr2557   1.981       .  S
O2540      C2541   1.264       .  A
C2541      O2542   1.265       .  A
C2541      C2564   1.502       .  S
O2542     Cr2558   2.015       .  S
O2543     Cr2558   2.025       .  S
O2543      C2544   1.276       .  A
C2544      O2545   1.264       .  A
C2544      C2864   1.489       .  S
O2545     Cr2559   1.991       .  S
O2546     Cr2559   1.957       .  S
O2546      C2547   1.259       .  A
C2547      C3176   1.457       .  S
O2548     Cr2557   2.004       .  S
O2548      C2556   1.266       .  A
O2549     Cr2557   1.957       .  S
O2549      C2550   1.250       .  A
C2550      O2551   1.268       .  A
C2550      C3164   1.443       .  S
O2551     Cr2558   2.007       .  S
O2552     Cr2558   1.998       .  S
O2552      C2553   1.261       .  A
C2553      O2554   1.258       .  A
C2553      C2648   1.472       .  S
O2554     Cr2559   1.981       .  S
O2555     Cr2559   2.001       .  S
O2555      C2556   1.261       .  A
C2556      C2576   1.499       .  S
Cr2557     O2560   1.784       .  S
Cr2558     O2560   1.784       .  S
Cr2559     O2560   1.765       .  S
C2561      C2562   1.406       .  A
C2561      C2566   1.414       .  A
C2562      C2563   1.412       .  A
C2562      H2571   1.083       .  S
C2563      C2564   1.423       .  A
C2563      S2567   1.809       .  S
C2564      C2565   1.408       .  A
C2565      C2566   1.405       .  A
C2565      H2572   1.084       .  S
C2566      S2568   1.803       .  S
S2567      H2570   1.406       .  S
S2568      H2569   1.407       .  S
C2573      C2574   1.405       .  A
C2573      C2578   1.421       .  A
C2574      C2575   1.407       .  A
C2574      H2583   1.084       .  S
C2575      C2576   1.421       .  A
C2575      S2579   1.800       .  S
C2576      C2577   1.402       .  A
C2577      C2578   1.404       .  A
C2577      H2584   1.084       .  S
C2578      S2580   1.791       .  S
S2579      H2582   1.400       .  S
S2580      H2581   1.405       .  S
C2585      C2586   1.412       .  A
C2585      C2590   1.430       .  A
C2586      C2587   1.421       .  A
C2586      H2595   1.083       .  S
C2587      C2588   1.423       .  A
C2587      S2591   1.802       .  S
C2588      C2589   1.404       .  A
C2589      C2590   1.409       .  A
C2589      H2596   1.084       .  S
C2590      S2592   1.805       .  S
S2591      H2594   1.407       .  S
S2592      H2593   1.406       .  S
C2597      C2598   1.401       .  A
C2597      C2602   1.411       .  A
C2598      C2599   1.400       .  A
C2598      H2607   1.083       .  S
C2599      C2600   1.421       .  A
C2599      S2603   1.806       .  S
C2600      C2601   1.411       .  A
C2601      C2602   1.407       .  A
C2601      H2608   1.083       .  S
C2602      S2604   1.806       .  S
S2603      H2606   1.407       .  S
S2604      H2605   1.407       .  S
C2609      C2610   1.397       .  A
C2609      C2614   1.420       .  A
C2610      C2611   1.411   1_545  A
C2610      H2619   1.083   1_545  S
C2611      C2612   1.425       .  A
C2611      S2615   1.803       .  S
C2612      C2613   1.398   1_565  A
C2613      C2614   1.412       .  A
C2613      H2620   1.082       .  S
C2614      S2616   1.798       .  S
S2615      H2618   1.407       .  S
S2616      H2617   1.407       .  S
C2621      C2622   1.405       .  A
C2621      C2626   1.410       .  A
C2622      C2623   1.399       .  A
C2622      H2631   1.084       .  S
C2623      C2624   1.410       .  A
C2623      S2627   1.804       .  S
C2624      C2625   1.401       .  A
C2625      C2626   1.398       .  A
C2625      H2632   1.083       .  S
C2626      S2628   1.807       .  S
S2627      H2630   1.402       .  S
S2628      H2629   1.406       .  S
C2633      C2634   1.408       .  A
C2633      C2638   1.417       .  A
C2634      C2635   1.411       .  A
C2634      H2643   1.084       .  S
C2635      C2636   1.422       .  A
C2635      S2639   1.800       .  S
C2636      C2637   1.411       .  A
C2637      C2638   1.411       .  A
C2637      H2644   1.084       .  S
C2638      S2640   1.803       .  S
S2639      H2642   1.408       .  S
S2640      H2641   1.407       .  S
C2645      C2646   1.409       .  A
C2645      C2650   1.415       .  A
C2646      C2647   1.398       .  A
C2646      H2655   1.084       .  S
C2647      C2648   1.409       .  A
C2647      S2651   1.802       .  S
C2648      C2649   1.404       .  A
C2649      C2650   1.396       .  A
C2649      H2656   1.084       .  S
C2650      S2652   1.801       .  S
S2651      H2654   1.407       .  S
S2652      H2653   1.405       .  S
C2657      C2658   1.414       .  A
C2657      C2662   1.421       .  A
C2658      C2659   1.410       .  A
C2658      H2667   1.084       .  S
C2659      C2660   1.415       .  A
C2659      S2663   1.804       .  S
C2660      C2661   1.410       .  A
C2661      C2662   1.417       .  A
C2661      H2668   1.084       .  S
C2662      S2664   1.798   1_556  S
S2663      H2666   1.405       .  S
C2669      C2670   1.398       .  A
C2669      C2674   1.425       .  A
C2670      C2671   1.401       .  A
C2670      H2679   1.083       .  S
C2671      C2672   1.411       .  A
C2671      S2675   1.804   1_556  S
C2672      C2673   1.389       .  A
C2673      C2674   1.391       .  A
C2673      H2680   1.084       .  S
C2674      S2676   1.812       .  S
S2675      H2678   1.407       .  S
S2676      H2677   1.407       .  S
C2681      C2682   1.403       .  A
C2681      C2686   1.431       .  A
C2682      C2683   1.414       .  A
C2682      H2691   1.082       .  S
C2683      C2684   1.415       .  A
C2683      S2687   1.804       .  S
C2684      C2685   1.388       .  A
C2685      C2686   1.394       .  A
C2685      H2692   1.084       .  S
C2686      S2688   1.808       .  S
S2687      H2690   1.407       .  S
S2688      H2689   1.408       .  S
C2693      C2694   1.416   1_565  A
C2693      C2698   1.416   1_565  A
C2694      C2695   1.410       .  A
C2694      H2703   1.084   1_545  S
C2695      C2696   1.415       .  A
C2695      S2699   1.801       .  S
C2696      C2697   1.413       .  A
C2697      C2698   1.400       .  A
C2697      H2704   1.083       .  S
C2698      S2700   1.802   1_545  S
S2699      H2702   1.408       .  S
S2700      H2701   1.407   1_565  S
C2705      C2706   1.395       .  A
C2705      C2710   1.417       .  A
C2706      C2707   1.392       .  A
C2706      H2715   1.084       .  S
C2707      C2708   1.413       .  A
C2707      S2711   1.799       .  S
C2708      C2709   1.397       .  A
C2709      C2710   1.397       .  A
C2709      H2716   1.083       .  S
C2710      S2712   1.811       .  S
S2711      H2714   1.407       .  S
S2712      H2713   1.407       .  S
C2717      C2718   1.417       .  A
C2717      C2722   1.405       .  A
C2718      C2719   1.393       .  A
C2718      H2727   1.083       .  S
C2719      C2720   1.400       .  A
C2719      S2723   1.800       .  S
C2720      C2721   1.418       .  A
C2721      C2722   1.402       .  A
C2721      H2728   1.084       .  S
C2722      S2724   1.801       .  S
S2723      H2726   1.407       .  S
S2724      H2725   1.407       .  S
C2729      C2730   1.409       .  A
C2729      C2734   1.425       .  A
C2730      C2731   1.397       .  A
C2730      H2739   1.083       .  S
C2731      C2732   1.408       .  A
C2731      S2735   1.802       .  S
C2732      C2733   1.395       .  A
C2733      C2734   1.402       .  A
S2735      H2738   1.405       .  S
S2736      H2737   1.408       .  S
C2741      C2742   1.400       .  A
C2741      C2746   1.418       .  A
C2742      C2743   1.390       .  A
C2742      H2751   1.084       .  S
C2743      C2744   1.422       .  A
C2743      S2747   1.802   1_556  S
C2744      C2745   1.402       .  A
C2745      C2746   1.398       .  A
C2745      H2752   1.084       .  S
C2746      S2748   1.796       .  S
S2747      H2750   1.392       .  S
S2748      H2749   1.408       .  S
C2753      C2754   1.408       .  A
C2753      C2758   1.415       .  A
C2754      H2763   1.084       .  S
C2755      C2756   1.422       .  A
C2755      S2759   1.802       .  S
C2756      C2757   1.407       .  A
C2757      H2764   1.084       .  S
C2758      S2760   1.803       .  S
S2759      H2762   1.403       .  S
S2760      H2761   1.407       .  S
C2765      C2766   1.410       .  A
C2765      C2770   1.421       .  A
C2766      C2767   1.404       .  A
C2766      H2775   1.083       .  S
C2767      C2768   1.408       .  A
C2767      S2771   1.800       .  S
C2768      C2769   1.400       .  A
C2769      C2770   1.400       .  A
C2769      H2776   1.084       .  S
C2770      S2772   1.798       .  S
S2771      H2774   1.407       .  S
S2772      H2773   1.406       .  S
C2777      C2778   1.405       .  A
C2777      C2782   1.418       .  A
C2778      C2779   1.406       .  A
C2778      H2787   1.084       .  S
C2779      C2780   1.424       .  A
C2779      S2783   1.802       .  S
C2780      C2781   1.405       .  A
C2781      C2782   1.397       .  A
C2781      H2788   1.083       .  S
C2782      S2784   1.800       .  S
S2783      H2786   1.408       .  S
S2784      H2785   1.406       .  S
C2789      C2790   1.405       .  A
C2789      C2794   1.409       .  A
C2790      C2791   1.396       .  A
C2790      H2799   1.083       .  S
C2791      C2792   1.416       .  A
C2792      C2793   1.414       .  A
C2793      C2794   1.402       .  A
C2793      H2800   1.083       .  S
C2794      S2796   1.803       .  S
S2796      H2797   1.407       .  S
C2801      C2802   1.396   1_565  A
C2801      C2806   1.422       .  A
C2802      C2803   1.405       .  A
C2802      H2811   1.084       .  S
C2803      C2804   1.424       .  A
C2803      S2807   1.795       .  S
C2804      C2805   1.398   1_545  A
C2805      C2806   1.407       .  A
C2805      H2812   1.083       .  S
C2806      S2808   1.796       .  S
S2807      H2810   1.407       .  S
S2808      H2809   1.406       .  S
C2813      C2814   1.404       .  A
C2813      C2818   1.413       .  A
C2814      C2815   1.406       .  A
C2814      H2823   1.084       .  S
C2815      C2816   1.420       .  A
C2815      S2819   1.802       .  S
C2816      C2817   1.408       .  A
C2817      C2818   1.401       .  A
C2817      H2824   1.083       .  S
C2818      S2820   1.801       .  S
S2819      H2822   1.406       .  S
S2820      H2821   1.407       .  S
C2825      C2826   1.408       .  A
C2825      C2830   1.413       .  A
C2826      C2827   1.400       .  A
C2826      H2835   1.084       .  S
C2827      C2828   1.415       .  A
C2827      S2831   1.799       .  S
C2828      C2829   1.410       .  A
C2829      C2830   1.400       .  A
C2829      H2836   1.084       .  S
C2830      S2832   1.801       .  S
S2831      H2834   1.405   1_655  S
S2832      H2833   1.407       .  S
C2837      C2838   1.417       .  A
C2837      C2842   1.404       .  A
C2838      C2839   1.410       .  A
C2838      H2847   1.081       .  S
C2839      C2840   1.405       .  A
C2839      S2843   1.802       .  S
C2840      C2841   1.410       .  A
C2841      C2842   1.405       .  A
C2841      H2848   1.067       .  S
C2842      S2844   1.801       .  S
S2843      H2846   1.407       .  S
S2844      H2845   1.407       .  S
C2849      C2850   1.397       .  A
C2849      C2854   1.411       .  A
C2850      C2851   1.400       .  A
C2851      C2852   1.425       .  A
C2852      C2853   1.408       .  A
C2853      C2854   1.399       .  A
C2853      H2860   1.084       .  S
C2854      S2856   1.800       .  S
S2855      H2858   1.407       .  S
S2856      H2857   1.404       .  S
C2861      C2862   1.408       .  A
C2861      C2866   1.415       .  A
C2862      C2863   1.416       .  A
C2862      H2871   1.083       .  S
C2863      C2864   1.412       .  A
C2863      S2867   1.804       .  S
C2864      C2865   1.406       .  A
C2865      C2866   1.405       .  A
C2865      H2872   1.085       .  S
C2866      S2868   1.803       .  S
S2867      H2870   1.407       .  S
S2868      H2869   1.406       .  S
C2873      C2874   1.411       .  A
C2873      C2878   1.406       .  A
C2874      C2875   1.398       .  A
C2874      H2883   1.085       .  S
C2875      C2876   1.408       .  A
C2875      S2879   1.805       .  S
C2876      C2877   1.408       .  A
C2877      C2878   1.397       .  A
C2877      H2884   1.084       .  S
C2878      S2880   1.802       .  S
S2879      H2882   1.406       .  S
C2885      C2886   1.409       .  A
C2885      C2890   1.417       .  A
C2886      C2887   1.400       .  A
C2886      H2895   1.084       .  S
C2887      C2888   1.407       .  A
C2887      S2891   1.801       .  S
C2888      C2889   1.408       .  A
C2889      C2890   1.404       .  A
C2889      H2896   1.085       .  S
C2890      S2892   1.804       .  S
S2891      H2894   1.406       .  S
S2892      H2893   1.407       .  S
C2897      C2898   1.412       .  A
C2897      C2902   1.416       .  A
C2898      C2899   1.394       .  A
C2898      H2907   1.083       .  S
C2899      C2900   1.406       .  A
C2899      S2903   1.804       .  S
C2900      C2901   1.403       .  A
C2901      C2902   1.392       .  A
C2901      H2908   1.084       .  S
C2902      S2904   1.801       .  S
S2903      H2906   1.407       .  S
S2904      H2905   1.405       .  S
C2909      C2910   1.411       .  A
C2909      C2914   1.415       .  A
C2910      H2919   1.084       .  S
C2911      C2912   1.420       .  A
C2911      S2915   1.803       .  S
C2912      C2913   1.419       .  A
C2913      H2920   1.083       .  S
C2914      S2916   1.800       .  S
S2915      H2918   1.408       .  S
S2916      H2917   1.407       .  S
C2921      C2922   1.406       .  A
C2921      C2926   1.410       .  A
C2922      C2923   1.405       .  A
C2922      H2931   1.083       .  S
C2923      C2924   1.415       .  A
C2923      S2927   1.800       .  S
C2924      C2925   1.408       .  A
C2925      C2926   1.402       .  A
C2925      H2932   1.084       .  S
C2926      S2928   1.802       .  S
S2927      H2930   1.406       .  S
S2928      H2929   1.405       .  S
C2933      C2934   1.395       .  A
C2933      C2938   1.411       .  A
C2934      C2935   1.387       .  A
C2934      H2943   1.084       .  S
C2935      C2936   1.424       .  A
C2935      S2939   1.815       .  S
C2936      C2937   1.409       .  A
C2937      C2938   1.404       .  A
C2937      H2944   1.084       .  S
C2938      S2940   1.799       .  S
S2939      H2942   1.407       .  S
S2940      H2941   1.407       .  S
C2945      C2946   1.405       .  A
C2945      C2950   1.428       .  A
C2946      C2947   1.407       .  A
C2946      H2955   1.083       .  S
C2947      C2948   1.415       .  A
C2947      S2951   1.801       .  S
C2948      C2949   1.394       .  A
C2949      C2950   1.392       .  A
C2949      H2956   1.086       .  S
C2950      S2952   1.809       .  S
S2951      H2954   1.407       .  S
S2952      H2953   1.408       .  S
C2957      C2958   1.391       .  A
C2957      C2962   1.414       .  A
C2958      C2959   1.395       .  A
C2958      H2967   1.083   1_655  S
C2959      C2960   1.422       .  A
C2959      S2963   1.811       .  S
C2960      C2961   1.396       .  A
C2961      C2962   1.402       .  A
C2961      H2968   1.083       .  S
C2962      S2964   1.803       .  S
S2963      H2966   1.407   1_655  S
S2964      H2965   1.407       .  S
C2969      C2970   1.415   1_455  A
C2969      C2974   1.409       .  A
C2970      C2971   1.391       .  A
C2970      H2979   1.084       .  S
C2971      C2972   1.397       .  A
C2971      S2975   1.801       .  S
C2972      C2973   1.414   1_655  A
C2973      C2974   1.408       .  A
C2973      H2980   1.084       .  S
C2974      S2976   1.801       .  S
S2975      H2978   1.408       .  S
S2976      H2977   1.405       .  S
C2981      C2982   1.405       .  A
C2981      C2986   1.420       .  A
C2982      C2983   1.415       .  A
C2982      H2991   1.084       .  S
C2983      C2984   1.421       .  A
C2983      S2987   1.800       .  S
C2984      C2985   1.405       .  A
C2985      C2986   1.413       .  A
C2985      H2992   1.082       .  S
C2986      S2988   1.803       .  S
S2987      H2990   1.407       .  S
S2988      H2989   1.408       .  S
C2993      C2994   1.409       .  A
C2993      C2998   1.405       .  A
C2994      C2995   1.400       .  A
C2994      H3003   1.083       .  S
C2995      C2996   1.409       .  A
C2995      S2999   1.799       .  S
C2996      C2997   1.413       .  A
C2997      C2998   1.398       .  A
C2997      H3004   1.084       .  S
S2999      H3002   1.406       .  S
S3000      H3001   1.405       .  S
C3005      C3006   1.418       .  A
C3005      C3010   1.409   1_545  A
C3006      C3007   1.425   1_545  A
C3006      H3015   1.083       .  S
C3007      C3008   1.418       .  A
C3007      S3011   1.799       .  S
C3008      C3009   1.411       .  A
C3009      C3010   1.400       .  A
C3009      H3016   1.072       .  S
C3010      S3012   1.806       .  S
S3011      H3014   1.407       .  S
S3012      H3013   1.407   1_565  S
C3017      C3018   1.397       .  A
C3017      C3022   1.436       .  A
C3018      C3019   1.399       .  A
C3018      H3027   1.083   1_655  S
C3019      C3020   1.414       .  A
C3019      S3023   1.804       .  S
C3020      C3021   1.380       .  A
C3021      C3022   1.385       .  A
C3021      H3028   1.082       .  S
S3023      H3026   1.407       .  S
S3024      H3025   1.407   1_455  S
C3029      C3030   1.391       .  A
C3029      C3034   1.411   1_655  A
C3030      C3031   1.395       .  A
C3030      H3039   1.084       .  S
C3031      C3032   1.425   1_655  A
C3031      S3035   1.810       .  S
C3032      C3033   1.400       .  A
C3033      C3034   1.405       .  A
C3033      H3040   1.082       .  S
C3034      S3036   1.802       .  S
S3035      H3038   1.408       .  S
S3036      H3037   1.407       .  S
C3041      C3042   1.401       .  A
C3041      C3046   1.411       .  A
C3042      C3043   1.402       .  A
C3043      C3044   1.409       .  A
C3044      C3045   1.398       .  A
C3045      C3046   1.395       .  A
C3045      H3052   1.084       .  S
C3046      S3048   1.799       .  S
S3047      H3050   1.407       .  S
S3048      H3049   1.407       .  S
C3053      C3054   1.397       .  A
C3053      C3058   1.409       .  A
C3054      C3055   1.403       .  A
C3054      H3063   1.084       .  S
C3055      C3056   1.427       .  A
C3055      S3059   1.810       .  S
C3056      C3057   1.408       .  A
C3057      C3058   1.400       .  A
C3057      H3064   1.083       .  S
C3058      S3060   1.803       .  S
S3059      H3062   1.408       .  S
S3060      H3061   1.407       .  S
C3065      C3066   1.409       .  A
C3065      C3070   1.405       .  A
C3066      C3067   1.403       .  A
C3066      H3075   1.085       .  S
C3067      C3068   1.411       .  A
C3067      S3071   1.802       .  S
C3068      C3069   1.408       .  A
C3069      C3070   1.396       .  A
C3069      H3076   1.083       .  S
C3070      S3072   1.803       .  S
S3071      H3074   1.406       .  S
S3072      H3073   1.406       .  S
C3077      C3078   1.412       .  A
C3077      C3082   1.419       .  A
C3078      C3079   1.406       .  A
C3078      H3087   1.084       .  S
C3079      C3080   1.411       .  A
C3079      S3083   1.801       .  S
C3080      C3081   1.408       .  A
C3081      C3082   1.410       .  A
C3081      H3088   1.084       .  S
C3082      S3084   1.800       .  S
S3083      H3086   1.405       .  S
S3084      H3085   1.408       .  S
C3089      C3090   1.413       .  A
C3089      C3094   1.410       .  A
C3090      C3091   1.409       .  A
C3090      H3099   1.084       .  S
C3091      C3092   1.410       .  A
C3091      S3095   1.800       .  S
C3092      C3093   1.405       .  A
C3093      C3094   1.393       .  A
S3095      H3098   1.404   1_655  S
S3096      H3097   1.407       .  S
C3101      C3102   1.408       .  A
C3101      C3106   1.410       .  A
C3102      C3103   1.409       .  A
C3102      H3111   1.084       .  S
C3103      C3104   1.418       .  A
C3103      S3107   1.800       .  S
C3104      C3105   1.413       .  A
C3105      C3106   1.405       .  A
C3105      H3112   1.084       .  S
C3106      S3108   1.803       .  S
S3107      H3110   1.407       .  S
S3108      H3109   1.405       .  S
C3113      C3114   1.420       .  A
C3113      C3118   1.407       .  A
C3114      C3115   1.391       .  A
C3115      C3116   1.396       .  A
C3115      S3119   1.803       .  S
C3116      C3117   1.409       .  A
C3117      C3118   1.402       .  A
C3117      H3124   1.083       .  S
C3118      S3120   1.795       .  S
S3119      H3122   1.406       .  S
S3120      H3121   1.407       .  S
C3125      C3126   1.410       .  A
C3125      C3130   1.422       .  A
C3126      C3127   1.403       .  A
C3126      H3135   1.084       .  S
C3127      C3128   1.410       .  A
C3127      S3131   1.798       .  S
C3128      C3129   1.399       .  A
C3129      C3130   1.388       .  A
C3129      H3136   1.082       .  S
C3130      S3132   1.805       .  S
S3131      H3134   1.407       .  S
S3132      H3133   1.408       .  S
C3137      C3138   1.405       .  A
C3137      C3142   1.414       .  A
C3138      H3147   1.084       .  S
C3139      C3140   1.418       .  A
C3139      S3143   1.800       .  S
C3140      C3141   1.410       .  A
C3141      H3148   1.084       .  S
C3142      S3144   1.802       .  S
S3143      H3146   1.407       .  S
S3144      H3145   1.407       .  S
C3149      C3150   1.402       .  A
C3149      C3154   1.412       .  A
C3150      C3151   1.401       .  A
C3150      H3159   1.084       .  S
C3151      C3152   1.414       .  A
C3151      S3155   1.792   1_556  S
C3152      C3153   1.409       .  A
C3153      C3154   1.413       .  A
C3153      H3160   1.083       .  S
C3154      S3156   1.798       .  S
S3156      H3157   1.406       .  S
C3161      C3162   1.404       .  A
C3161      C3166   1.418       .  A
C3162      C3163   1.398       .  A
C3162      H3171   1.084       .  S
C3163      C3164   1.411       .  A
C3163      S3167   1.803       .  S
C3164      C3165   1.398       .  A
C3165      C3166   1.394       .  A
C3165      H3172   1.084       .  S
C3166      S3168   1.812       .  S
S3167      H3170   1.407       .  S
S3168      H3169   1.407       .  S
C3173      C3174   1.397       .  A
C3173      C3178   1.421       .  A
C3174      C3175   1.396       .  A
C3174      H3183   1.083       .  S
C3175      C3176   1.415       .  A
C3175      S3179   1.807       .  S
C3176      C3177   1.394       .  A
C3177      C3178   1.389       .  A
C3177      H3184   1.084       .  S
C3178      S3180   1.813       .  S
S3179      H3182   1.407       .  S
S3180      H3181   1.407       .  S
C3185      C3186   1.401       .  A
C3185      C3190   1.409       .  A
C3186      C3187   1.400       .  A
C3186      H3195   1.084       .  S
C3187      C3188   1.413       .  A
C3187      S3191   1.803       .  S
C3188      C3189   1.399       .  A
C3189      C3190   1.393       .  A
C3189      H3196   1.085       .  S
S3191      H3194   1.402       .  S
C3197      C3198   1.402       .  A
C3197      C3202   1.411       .  A
C3198      C3199   1.405       .  A
C3198      H3207   1.084       .  S
C3199      C3200   1.418       .  A
C3199      S3203   1.802       .  S
C3200      C3201   1.399       .  A
C3201      C3202   1.400       .  A
S3203      H3206   1.406       .  S
S3204      H3205   1.407       .  S
C3209      C3210   1.406       .  A
C3209      C3214   1.415       .  A
C3210      C3211   1.407       .  A
C3210      H3219   1.084       .  S
C3211      C3212   1.415       .  A
C3211      S3215   1.803       .  S
C3212      C3213   1.406       .  A
C3213      C3214   1.408       .  A
C3213      H3220   1.084       .  S
C3214      S3216   1.802       .  S
S3215      H3218   1.404       .  S
S3216      H3217   1.405       .  S
C3221      C3222   1.408       .  A
C3221      C3226   1.411       .  A
C3222      C3223   1.397       .  A
C3222      H3231   1.084       .  S
C3223      C3224   1.407       .  A
C3223      S3227   1.803       .  S
C3224      C3225   1.408       .  A
C3225      C3226   1.402       .  A
C3225      H3232   1.085       .  S
C3226      S3228   1.803       .  S
S3227      H3230   1.406       .  S
S3228      H3229   1.407       .  S
C3233      C3234   1.406       .  A
C3233      C3238   1.424       .  A
C3234      C3235   1.399       .  A
C3234      H3243   1.084       .  S
C3235      C3236   1.411       .  A
C3235      S3239   1.804       .  S
C3236      C3237   1.398       .  A
C3237      C3238   1.400       .  A
C3237      H3244   1.085       .  S
C3238      S3240   1.801       .  S
S3239      H3242   1.407       .  S
S3240      H3241   1.398       .  S
C3245      C3246   1.414       .  A
C3245      C3250   1.421       .  A
C3246      C3247   1.406       .  A
C3246      H3255   1.083       .  S
C3247      C3248   1.419       .  A
C3247      S3251   1.802       .  S
C3248      C3249   1.415       .  A
C3249      C3250   1.420       .  A
C3249      H3256   1.083       .  S
C3250      S3252   1.799       .  S
S3251      H3254   1.408       .  S
S3252      H3253   1.407       .  S
C3257      C3258   1.407       .  A
C3257      C3262   1.415       .  A
C3258      C3259   1.412       .  A
C3258      H3267   1.084       .  S
C3259      C3260   1.416       .  A
C3259      S3263   1.801       .  S
C3260      C3261   1.404       .  A
C3261      C3262   1.405       .  A
C3261      H3268   1.084       .  S
C3262      S3264   1.802       .  S
S3263      H3266   1.405       .  S
S3264      H3265   1.406       .  S
C3269      C3270   1.409       .  A
C3269      C3274   1.414   1_655  A
C3270      C3271   1.397   1_655  A
C3270      H3279   1.083       .  S
C3271      C3272   1.405       .  A
C3271      S3275   1.799       .  S
C3272      C3273   1.403       .  A
C3273      C3274   1.397       .  A
C3273      H3280   1.072       .  S
C3274      S3276   1.804       .  S
S3275      H3278   1.402       .  S
S3276      H3277   1.408       .  S
C3281      C3282   1.404       .  A
C3281      C3286   1.404       .  A
C3282      C3283   1.403       .  A
C3282      H3291   1.083       .  S
C3283      C3284   1.413   1_655  A
C3283      S3287   1.808       .  S
C3284      C3285   1.409       .  A
C3285      C3286   1.399   1_455  A
C3285      H3292   1.083       .  S
C3286      S3288   1.808       .  S
S3288      H3289   1.407   1_655  S
C3293      C3294   1.410       .  A
C3293      C3298   1.420       .  A
C3294      C3295   1.419       .  A
C3294      H3303   1.082       .  S
C3295      C3296   1.419       .  A
C3295      S3299   1.806       .  S
C3296      C3297   1.406       .  A
C3297      C3298   1.408       .  A
C3297      H3304   1.084       .  S
C3298      S3300   1.803       .  S
S3299      H3302   1.407       .  S
S3300      H3301   1.407       .  S
C3305      C3306   1.417       .  A
C3305      C3310   1.408       .  A
C3306      C3307   1.393       .  A
C3306      H3315   1.082       .  S
C3307      C3308   1.400       .  A
C3307      S3311   1.802       .  S
C3308      C3309   1.412       .  A
C3309      C3310   1.401       .  A
C3309      H3316   1.079       .  S
C3310      S3312   1.800       .  S
S3311      H3314   1.407       .  S
S3312      H3313   1.407       .  S
C3317      C3318   1.414   1_655  A
C3317      C3322   1.409       .  A
C3318      C3319   1.395       .  A
C3318      H3327   1.084       .  S
C3319      C3320   1.406       .  A
C3319      S3323   1.804       .  S
C3320      C3321   1.414   1_455  A
C3321      C3322   1.411       .  A
C3321      H3328   1.084       .  S
C3322      S3324   1.795       .  S
S3323      H3326   1.407       .  S
S3324      H3325   1.404       .  S
C3329      C3330   1.409       .  A
C3329      C3334   1.411       .  A
C3330      C3331   1.392       .  A
C3330      H3339   1.084       .  S
C3331      C3332   1.411       .  A
C3331      S3335   1.805       .  S
C3332      C3333   1.410       .  A
C3333      C3334   1.398       .  A
C3333      H3340   1.083       .  S
C3334      S3336   1.803       .  S
S3335      H3338   1.408       .  S
S3336      H3337   1.406       .  S
C3341      C3342   1.410       .  A
C3341      C3346   1.409       .  A
C3342      C3343   1.404       .  A
C3342      H3351   1.078       .  S
C3343      C3344   1.414       .  A
C3343      S3347   1.802       .  S
C3344      C3345   1.422       .  A
C3345      C3346   1.418       .  A
C3345      H3352   1.082       .  S
C3346      S3348   1.805       .  S
S3347      H3350   1.407       .  S
S3348      H3349   1.407       .  S
C3353      C3354   1.402       .  A
C3353      C3358   1.405       .  A
C3354      C3355   1.402       .  A
C3355      C3356   1.417       .  A
C3356      C3357   1.409       .  A
C3357      C3358   1.393       .  A
C3357      H3364   1.083       .  S
C3358      S3360   1.803       .  S
S3359      H3362   1.406       .  S
S3360      H3361   1.406   1_455  S
C3365      C3366   1.411       .  A
C3365      C3370   1.414       .  A
C3366      C3367   1.406       .  A
C3366      H3375   1.084       .  S
C3367      C3368   1.411       .  A
C3367      S3371   1.803       .  S
C3368      C3369   1.403       .  A
C3369      C3370   1.394       .  A
C3369      H3376   1.082       .  S
C3370      S3372   1.803       .  S
S3371      H3374   1.406       .  S
S3372      H3373   1.408       .  S
C3377      C3378   1.406       .  A
C3377      C3382   1.413       .  A
C3378      C3379   1.403       .  A
C3378      H3387   1.083       .  S
C3379      C3380   1.411       .  A
C3380      C3381   1.408       .  A
C3381      C3382   1.408       .  A
C3381      H3388   1.084       .  S
C3382      S3384   1.801       .  S
S3383      H3386   1.405       .  S
S3384      H3385   1.405       .  S
C3389      C3390   1.412       .  A
C3389      C3394   1.413       .  A
C3390      C3391   1.402       .  A
C3390      H3399   1.084       .  S
C3391      C3392   1.413       .  A
C3391      S3395   1.801       .  S
C3392      C3393   1.411       .  A
C3393      C3394   1.403       .  A
C3393      H3400   1.084       .  S
C3394      S3396   1.801       .  S
S3395      H3398   1.407       .  S
S3396      H3397   1.407       .  S
C3401      C3402   1.405       .  A
C3401      C3406   1.416       .  A
C3402      C3403   1.402       .  A
C3402      H3411   1.084       .  S
C3403      C3404   1.413       .  A
C3403      S3407   1.803       .  S
C3404      C3405   1.407       .  A
C3405      C3406   1.413       .  A
C3405      H3412   1.084       .  S
C3406      S3408   1.801       .  S
S3408      H3409   1.405       .  S
C3413      C3414   1.397       .  A
C3413      C3418   1.409       .  A
C3414      C3415   1.402       .  A
C3414      H3423   1.084       .  S
C3415      C3416   1.426       .  A
C3415      S3419   1.802       .  S
C3416      C3417   1.404       .  A
C3417      C3418   1.395       .  A
C3417      H3424   1.084       .  S
C3418      S3420   1.796       .  S
S3419      H3422   1.407       .  S
S3420      H3421   1.406       .  S
C3425      C3426   1.409       .  A
C3425      C3430   1.418       .  A
C3426      C3427   1.406       .  A
C3426      H3435   1.084       .  S
C3427      C3428   1.415       .  A
C3427      S3431   1.804       .  S
C3428      C3429   1.406       .  A
C3429      C3430   1.404       .  A
C3429      H3436   1.084       .  S
C3430      S3432   1.800       .  S
S3431      H3434   1.407       .  S
S3432      H3433   1.407       .  S
C3437      C3438   1.407       .  A
C3437      C3442   1.417       .  A
C3438      C3439   1.399       .  A
C3438      H3447   1.084       .  S
C3439      C3440   1.411       .  A
C3439      S3443   1.803       .  S
C3440      C3441   1.399       .  A
C3441      C3442   1.394       .  A
C3441      H3448   1.079       .  S
C3442      S3444   1.804       .  S
S3443      H3446   1.405       .  S
S3444      H3445   1.407       .  S
C3449      C3450   1.402       .  A
C3449      C3454   1.409       .  A
C3450      C3451   1.401       .  A
C3451      C3452   1.416       .  A
C3452      C3453   1.401       .  A
C3453      C3454   1.387       .  A
C3453      H3460   1.084       .  S
C3454      S3456   1.796       .  S
S3455      H3458   1.407       .  S
S3456      H3457   1.407   1_455  S
C3461      C3462   1.408       .  A
C3461      C3466   1.420       .  A
C3462      C3463   1.413       .  A
C3462      H3471   1.084       .  S
C3463      C3464   1.423       .  A
C3463      S3467   1.802       .  S
C3464      C3465   1.411       .  A
C3465      C3466   1.420       .  A
C3465      H3472   1.082       .  S
C3466      S3468   1.807       .  S
S3467      H3470   1.407       .  S
S3468      H3469   1.407       .  S
C3473      C3474   1.400       .  A
C3473      C3478   1.438       .  A
C3474      C3475   1.399       .  A
C3474      H3483   1.084       .  S
C3475      C3476   1.412       .  A
C3475      S3479   1.800       .  S
C3476      C3477   1.380       .  A
C3477      C3478   1.385       .  A
C3477      H3484   1.084       .  S
C3478      S3480   1.821       .  S
S3479      H3482   1.406       .  S
S3480      H3481   1.406       .  S
C3485      C3486   1.412       .  A
C3485      C3490   1.403       .  A
C3486      C3487   1.383       .  A
C3487      C3488   1.398       .  A
C3487      S3491   1.803       .  S
C3488      C3489   1.414       .  A
C3489      C3490   1.399       .  A
C3489      H3496   1.084       .  S
C3490      S3492   1.801       .  S
S3491      H3494   1.407       .  S
S3492      H3493   1.406       .  S
C3497      C3498   1.403       .  A
C3497      C3502   1.409       .  A
C3498      C3499   1.395       .  A
C3498      H3507   1.085       .  S
C3499      C3500   1.408       .  A
C3500      C3501   1.400       .  A
C3501      C3502   1.396       .  A
C3501      H3508   1.081       .  S
C3502      S3504   1.804       .  S
S3504      H3505   1.405       .  S
C3509      C3510   1.402       .  A
C3509      C3514   1.423       .  A
C3510      C3511   1.394       .  A
C3511      C3512   1.418       .  A
C3512      C3513   1.404       .  A
C3513      C3514   1.405       .  A
C3513      H3520   1.084       .  S
C3514      S3516   1.801       .  S
S3515      H3518   1.407       .  S
S3516      H3517   1.408       .  S
C3521      C3522   1.406       .  A
C3521      C3526   1.416       .  A
C3522      C3523   1.410       .  A
C3522      H3531   1.084       .  S
C3523      C3524   1.416       .  A
C3523      S3527   1.799       .  S
C3524      C3525   1.406       .  A
C3525      C3526   1.410       .  A
C3525      H3532   1.084       .  S
C3526      S3528   1.802       .  S
S3527      H3530   1.406       .  S
S3528      H3529   1.406       .  S
C3533      C3534   1.409       .  A
C3533      C3538   1.410       .  A
C3534      C3535   1.403       .  A
C3534      H3543   1.085       .  S
C3535      C3536   1.412       .  A
C3535      S3539   1.802       .  S
C3536      C3537   1.411       .  A
C3537      C3538   1.403       .  A
C3537      H3544   1.084       .  S
C3538      S3540   1.803       .  S
S3539      H3542   1.407       .  S
S3540      H3541   1.405       .  S
C3545      C3546   1.397       .  A
C3545      C3550   1.412       .  A
C3546      C3547   1.399       .  A
C3546      H3555   1.083       .  S
C3547      C3548   1.422       .  A
C3547      S3551   1.801       .  S
C3548      C3549   1.406       .  A
C3549      C3550   1.401       .  A
C3549      H3556   1.084       .  S
C3550      S3552   1.803       .  S
S3551      H3554   1.408       .  S
C3557      C3558   1.406       .  A
C3557      C3562   1.423       .  A
C3558      H3567   1.084       .  S
C3559      C3560   1.426       .  A
C3559      S3563   1.805       .  S
C3560      C3561   1.410       .  A
C3561      H3568   1.083       .  S
C3562      S3564   1.801       .  S
S3563      H3566   1.408       .  S
S3564      H3565   1.407       .  S
C3569      C3570   1.401       .  A
C3569      C3574   1.407       .  A
C3570      C3571   1.394       .  A
C3570      H3579   1.085       .  S
C3571      C3572   1.412       .  A
C3571      S3575   1.803       .  S
C3572      C3573   1.407       .  A
C3573      C3574   1.394       .  A
C3573      H3580   1.084       .  S
C3574      S3576   1.808       .  S
S3575      H3578   1.407       .  S
S3576      H3577   1.401       .  S
C3581      C3582   1.409       .  A
C3581      C3586   1.423       .  A
C3582      C3583   1.406       .  A
C3582      H3591   1.082       .  S
C3583      C3584   1.413       .  A
C3583      S3587   1.805       .  S
C3584      C3585   1.400       .  A
C3585      C3586   1.401       .  A
C3585      H3592   1.084       .  S
C3586      S3588   1.799       .  S
S3587      H3590   1.407       .  S
S3588      H3589   1.407       .  S
C3593      C3594   1.405       .  A
C3593      C3598   1.404       .  A
C3594      C3595   1.402       .  A
C3594      H3603   1.084       .  S
C3595      C3596   1.416       .  A
C3595      S3599   1.803       .  S
C3596      C3597   1.408       .  A
C3597      C3598   1.396       .  A
C3597      H3604   1.084       .  S
C3598      S3600   1.805       .  S
S3599      H3602   1.406       .  S
S3600      H3601   1.406       .  S
C3605      C3606   1.408       .  A
C3605      C3610   1.410       .  A
C3606      C3607   1.398       .  A
C3606      H3615   1.084       .  S
C3607      C3608   1.406       .  A
C3607      S3611   1.802       .  S
C3608      C3609   1.409       .  A
C3609      C3610   1.399       .  A
C3609      H3616   1.085       .  S
C3610      S3612   1.804       .  S
S3611      H3614   1.406       .  S
S3612      H3613   1.407       .  S
C3617      C3618   1.401       .  A
C3617      C3622   1.413       .  A
C3618      C3619   1.402       .  A
C3618      H3627   1.081       .  S
C3619      C3620   1.417       .  A
C3619      S3623   1.804       .  S
C3620      C3621   1.406       .  A
C3621      C3622   1.407       .  A
C3621      H3628   1.084       .  S
C3622      S3624   1.804       .  S
S3623      H3626   1.407       .  S
S3624      H3625   1.406       .  S
C3629      C3630   1.395       .  A
C3629      C3634   1.409       .  A
C3630      C3631   1.397       .  A
C3630      H3639   1.085       .  S
C3631      C3632   1.422       .  A
C3631      S3635   1.799       .  S
C3632      C3633   1.409       .  A
C3633      C3634   1.396       .  A
C3633      H3640   1.083       .  S
C3634      S3636   1.803       .  S
S3635      H3638   1.407       .  S
S3636      H3637   1.404       .  S
C3641      C3642   1.402       .  A
C3641      C3646   1.409       .  A
C3642      C3643   1.402       .  A
C3642      H3651   1.082       .  S
C3643      C3644   1.413       .  A
C3643      S3647   1.803       .  S
C3644      C3645   1.404       .  A
C3645      C3646   1.398       .  A
C3645      H3652   1.084       .  S
C3646      S3648   1.803       .  S
S3647      H3650   1.404       .  S
S3648      H3649   1.406       .  S
C3653      C3654   1.402       .  A
C3653      C3658   1.414       .  A
C3654      C3655   1.407       .  A
C3654      H3663   1.084       .  S
C3655      C3656   1.418       .  A
C3655      S3659   1.801       .  S
C3656      C3657   1.407       .  A
C3657      C3658   1.411       .  A
C3657      H3664   1.083   1_556  S
C3658      S3660   1.807       .  S
S3659      H3662   1.407       .  S
S3660      H3661   1.407       .  S
C3665      C3666   1.407       .  A
C3665      C3670   1.411       .  A
C3666      C3667   1.396       .  A
C3666      H3675   1.084       .  S
C3667      C3668   1.401       .  A
C3667      S3671   1.798       .  S
C3668      C3669   1.410       .  A
C3669      C3670   1.399       .  A
C3669      H3676   1.085       .  S
C3670      S3672   1.805       .  S
S3671      H3674   1.407       .  S
S3672      H3673   1.405       .  S
C3677      C3678   1.408       .  A
C3677      C3682   1.412       .  A
C3678      C3679   1.397       .  A
C3678      H3687   1.084       .  S
C3679      C3680   1.403       .  A
C3679      S3683   1.801       .  S
C3680      C3681   1.411       .  A
C3681      C3682   1.407       .  A
C3681      H3688   1.084       .  S
C3682      S3684   1.803       .  S
S3683      H3686   1.406       .  S
S3684      H3685   1.405       .  S
C3689      C3690   1.411       .  A
C3689      C3694   1.423       .  A
C3690      C3691   1.408       .  A
C3690      H3699   1.084       .  S
C3691      C3692   1.415       .  A
C3691      S3695   1.803       .  S
C3692      C3693   1.407       .  A
C3693      C3694   1.409       .  A
C3693      H3700   1.084       .  S
C3694      S3696   1.801       .  S
S3695      H3698   1.407       .  S
S3696      H3697   1.404       .  S
C3701      C3702   1.403       .  A
C3701      C3706   1.409       .  A
C3702      C3703   1.388       .  A
C3702      H3711   1.083       .  S
C3703      C3704   1.406       .  A
C3703      S3707   1.803       .  S
C3704      C3705   1.404       .  A
C3705      C3706   1.397       .  A
C3705      H3712   1.084       .  S
C3706      S3708   1.798       .  S
S3707      H3710   1.407       .  S
S3708      H3709   1.407       .  S
