geometry optimzed in LAMMPS
_audit_creation_date              2020-12-01 
_audit_creation_method            'lammps2cif' 
_symmetry_space_group_name_H-M    'P1' 
_symmetry_Int_Tables_number       1 
_symmetry_cell_setting            triclinic 
loop_ 
_symmetry_equiv_pos_as_xyz 
  x,y,z 
_cell_length_a                    28.64897837 
_cell_length_b                    28.39365082008843 
_cell_length_c                    35.98231362620876 
_cell_angle_alpha                 89.96234644485554 
_cell_angle_beta                  89.45716112144311 
_cell_angle_gamma                 89.71077768649846 
loop_ 
_atom_site_label 
_atom_site_type_symbol 
_atom_site_fract_x 
_atom_site_fract_y 
_atom_site_fract_z 
_atom_site_charge 
O1          O  0.48639453  0.30428807  0.17516929    -0.82000
C2          C  0.57832141  0.13807630  0.17064004     0.97400
O3          O  0.53650389  0.15185879  0.17480521    -0.71100
O4          O  0.47255439  0.21298518  0.19543329    -0.74700
Al5        Al  0.50770950  0.20466641  0.15113041     1.49000
C6          C  0.48373332  0.22345465  0.22816373     0.92600
O7          O  0.60475345  0.28376939  0.21988239    -0.80900
O8          O  0.63166252  0.29167309  0.14192778    -0.74500
Al9        Al  0.54602096  0.28868417  0.19499920     1.90100
O10         O  0.63801105  0.22238604  0.19398361    -0.73600
O11         O  0.59325936  0.23098484  0.09654953    -0.73400
O12         O  0.60520554  0.16001011  0.14864762    -0.79100
O13         O  0.53082207  0.18761969  0.10278032    -0.77300
O14         O  0.55543906  0.24082963  0.16397358    -1.13400
O15         O  0.47474411  0.25596480  0.12828089    -0.72600
C16         C  0.46423992  0.29316488  0.14607850     0.98100
C17         C  0.63811879  0.25464694  0.21785554     0.94500
Al18       Al  0.61225314  0.22743314  0.14650771     1.55600
O19         O  0.51893178  0.24923930  0.23354951    -0.77200
C20         C  0.56161375  0.20638999  0.08242504     0.98700
C21         C  0.61189840  0.33115838  0.14641040     0.93600
O22         O  0.57165186  0.33338102  0.16108921    -0.82500
O23         O  0.89050931  0.20270039  0.34068415    -0.82000
C24         C  0.87612914  0.39946703  0.33826240     0.97400
O25         O  0.85046540  0.37417205  0.35879023    -0.71100
O26         O  0.81687338  0.31270068  0.31344384    -0.74700
Al27       Al  0.84681623  0.30641662  0.35912729     1.49000
C28         C  0.81471949  0.28038677  0.28977381     0.92600
O29         O  0.93160347  0.29079468  0.26645176    -0.80900
O30         O  0.98837368  0.28176703  0.36624544    -0.74500
Al31       Al  0.91028612  0.24926002  0.30567334     1.90100
O32         O  0.97954189  0.33117948  0.30126288    -0.73600
O33         O  0.93287613  0.34299131  0.40115698    -0.73400
O34         O  0.91770075  0.38675122  0.33182791    -0.79100
O35         O  0.86954623  0.30091927  0.40734995    -0.77300
O36         O  0.90264022  0.29591634  0.33824262    -1.13400
O37         O  0.83037546  0.24135084  0.36337140    -0.72600
C38         C  0.85185024  0.20294408  0.35794544     0.98100
C39         C  0.96645263  0.31777283  0.26958891     0.94500
Al40       Al  0.95047662  0.33298996  0.34948466     1.55600
O41         O  0.84852026  0.25218524  0.28533066    -0.77200
C42         C  0.90277814  0.32286009  0.42157754     0.98700
C43         C  0.99837536  0.24612901  0.34652163     0.93600
O44         O  0.97271954  0.23489356  0.31966056    -0.82500
O45         O  0.56842880  0.32319618  0.84333602    -0.82000
C46         C  0.57300211  0.12496452  0.83720127     0.97400
O47         O  0.60055110  0.14893874  0.85672852    -0.71100
O48         O  0.63424546  0.20987628  0.80987093    -0.74700
Al49       Al  0.60791422  0.21622732  0.85754415     1.49000
C50         C  0.63741825  0.24376221  0.78753291     0.92600
O51         O  0.51974684  0.23752682  0.76991954    -0.80900
O52         O  0.46916036  0.24786010  0.87367780    -0.74500
Al53       Al  0.54420164  0.27826622  0.80865772     1.90100
O54         O  0.47193061  0.20145125  0.80797010    -0.73600
O55         O  0.52364874  0.18163490  0.90337249    -0.73400
O56         O  0.53181649  0.13981705  0.83242768    -0.79100
O57         O  0.58853605  0.22144236  0.90707504    -0.77300
O58         O  0.55175258  0.23038641  0.84021827    -1.13400
O59         O  0.62769786  0.27993101  0.86161631    -0.72600
C60         C  0.60840931  0.31976376  0.85801266     0.98100
C61         C  0.48548933  0.21017356  0.77524300     0.94500
Al62       Al  0.50321531  0.19530072  0.85349730     1.55600
O63         O  0.60466879  0.27351722  0.78536617    -0.77200
C64         C  0.55542513  0.20004212  0.92258083     0.98700
C65         C  0.45861964  0.28402111  0.85474998     0.93600
O66         O  0.48254048  0.29485325  0.82623930    -0.82500
O67         O  0.97269110  0.22277758  0.68067228    -0.82000
C68         C  0.88018595  0.38859824  0.66780429     0.97400
O69         O  0.92177728  0.37480973  0.67205878    -0.71100
O70         O  0.98352867  0.31550478  0.69651564    -0.74700
Al71       Al  0.95097498  0.32050340  0.65138757     1.49000
C72         C  0.97120987  0.30757927  0.72964337     0.92600
O73         O  0.85131363  0.24468169  0.72197230    -0.80900
O74         O  0.82889220  0.23273577  0.64364541    -0.74500
Al75       Al  0.91145385  0.23946992  0.69845728     1.90100
O76         O  0.81856689  0.30418845  0.69376756    -0.73600
O77         O  0.86735059  0.29225474  0.59687135    -0.73400
O78         O  0.85304352  0.36503673  0.64749189    -0.79100
O79         O  0.93048541  0.33435802  0.60187053    -0.77300
O80         O  0.90290143  0.28535588  0.66531936    -1.13400
O81         O  0.98437490  0.26778593  0.63153764    -0.72600
C82         C  0.99536888  0.23245326  0.65125163     0.98100
C83         C  0.81749518  0.27290672  0.71843824     0.94500
Al84       Al  0.84675511  0.29746365  0.64678522     1.55600
O85         O  0.93603018  0.28185691  0.73598279    -0.77200
C86         C  0.89962225  0.31575947  0.58202133     0.98700
C87         C  0.84931351  0.19395586  0.64973512     0.93600
O88         O  0.88845770  0.19306976  0.66565403    -0.82500
O89         O  0.67456027  0.59007533  0.84263763    -0.82000
C90         C  0.86664293  0.60994443  0.83498294     0.97400
O91         O  0.84295867  0.63411239  0.85799341    -0.71100
O92         O  0.78086634  0.66434469  0.81214943    -0.74700
Al93       Al  0.77532105  0.63689570  0.85874854     1.49000
C94         C  0.74927558  0.66446782  0.78825054     0.92600
O95         O  0.76174581  0.54436925  0.77027357    -0.80900
O96         O  0.75792431  0.49541168  0.87337081    -0.74500
Al97       Al  0.72086031  0.56836667  0.80870275     1.90100
O98         O  0.80357606  0.50011764  0.80717629    -0.73600
O99         O  0.81846296  0.55601078  0.90288476    -0.73400
O100        O  0.85683306  0.56710075  0.83027583    -0.79100
O101        O  0.77017088  0.61560023  0.90784193    -0.77300
O102        O  0.76694164  0.57943803  0.84019448    -1.13400
O103        O  0.71004304  0.65341680  0.86194745    -0.72600
C104        C  0.67278507  0.63101992  0.85627566     0.98100
C105        C  0.79109937  0.51149447  0.77489235     0.94500
Al106      Al  0.80633446  0.53349464  0.85274443     1.55600
O107        O  0.72265545  0.62930770  0.78493208    -0.77200
C108        C  0.79615009  0.58541415  0.92281490     0.98700
C109        C  0.72186235  0.48386837  0.85543697     0.93600
O110        O  0.70876645  0.50678363  0.82717821    -0.82500
O111        O  0.74788721  0.00438439  0.68961280    -0.82000
C112        C  0.59436109  0.89714154  0.66464789     0.97400
O113        O  0.60205073  0.93985459  0.67230734    -0.71100
O114        O  0.65069436  0.00652768  0.70336081    -0.74700
Al115      Al  0.65442349  0.97619401  0.65600089     1.49000
C116        C  0.66087736  0.99379538  0.73593407     0.92600
O117        O  0.73386383  0.87933602  0.72572275    -0.80900
O118        O  0.75550116  0.86137249  0.64779803    -0.74500
Al119      Al  0.73578088  0.94128595  0.70461744     1.90100
O120        O  0.68129560  0.84298876  0.69301839    -0.73600
O121        O  0.69859947  0.89939950  0.60004793    -0.73400
O122        O  0.62302502  0.87442312  0.64449883    -0.79100
O123        O  0.64813751  0.95682374  0.60464396    -0.77300
O124        O  0.69363834  0.93063125  0.66958960    -1.13400
O125        O  0.70470670  0.01603532  0.64009658    -0.72600
C126        C  0.73944453  0.02669349  0.65998564     0.98100
C127        C  0.70975726  0.84317974  0.71930898     0.94500
Al128      Al  0.68991102  0.87447070  0.64796304     1.55600
O129        O  0.69018030  0.96104070  0.74103658    -0.77200
C130        C  0.67255054  0.92922682  0.58476538     0.98700
C131        C  0.79102720  0.88471744  0.65654889     0.93600
O132        O  0.78638842  0.92355779  0.67324809    -0.82500
O133        O  0.70770607  0.52426660  0.18115028    -0.82000
C134        C  0.86705329  0.62558317  0.17057683     0.97400
O135        O  0.85720325  0.58275387  0.17615162    -0.71100
O136        O  0.80379307  0.51531022  0.20039764    -0.74700
Al137      Al  0.80669198  0.54851484  0.15462968     1.49000
C138        C  0.79077579  0.52635380  0.23268073     0.92600
O139        O  0.72556989  0.64714308  0.22232300    -0.80900
O140        O  0.71138618  0.66813694  0.14196919    -0.74500
Al141      Al  0.72172431  0.58577187  0.19933797     1.90100
O142        O  0.78094637  0.68310952  0.19111418    -0.73600
O143        O  0.77249912  0.62830184  0.09740999    -0.73400
O144        O  0.84404341  0.64898192  0.14696237    -0.79100
O145        O  0.82037619  0.56907662  0.10428383    -0.77300
O146        O  0.76765845  0.59543285  0.16662391    -1.13400
O147        O  0.75728807  0.51050612  0.13494408    -0.72600
C148        C  0.72001674  0.50066169  0.15278466     0.98100
C149        C  0.75110397  0.68287474  0.21672533     0.94500
Al150      Al  0.77646734  0.65206848  0.14592493     1.55600
O151        O  0.76241568  0.56030420  0.23743368    -0.77200
C152        C  0.79884953  0.59748947  0.08341219     0.98700
C153        C  0.67369491  0.64715271  0.14950419     0.93600
O154        O  0.67466755  0.60847092  0.16682088    -0.82500
O155        O  0.78663530  0.93614196  0.33909039    -0.82000
C156        C  0.59545632  0.91160976  0.33610316     0.97400
O157        O  0.61956301  0.88777058  0.35873502    -0.71100
O158        O  0.68105091  0.85943821  0.31124168    -0.74700
Al159      Al  0.68720649  0.88643770  0.35789904     1.49000
C160        C  0.71129154  0.86083056  0.28598634     0.92600
O161        O  0.69676821  0.98117508  0.27040633    -0.80900
O162        O  0.70357759  0.02660343  0.37507701    -0.74500
Al163      Al  0.73892529  0.95698210  0.30701890     1.90100
O164        O  0.65671584  0.02441878  0.30971378    -0.73600
O165        O  0.64275489  0.96489973  0.40430801    -0.73400
O166        O  0.60386436  0.95512312  0.33227861    -0.79100
O167        O  0.69304774  0.90719906  0.40683705    -0.77300
O168        O  0.69398462  0.94422254  0.33981401    -1.13400
O169        O  0.75300750  0.87226010  0.35983036    -0.72600
C170        C  0.78947298  0.89645483  0.35449442     0.98100
C171        C  0.66829409  0.01445947  0.27672707     0.94500
Al172      Al  0.65442114  0.98911396  0.35445091     1.55600
O173        O  0.73761180  0.89634482  0.28239878    -0.77200
C174        C  0.66737915  0.93672881  0.42319234     0.98700
C175        C  0.73935452  0.03881218  0.35633894     0.93600
O176        O  0.75013884  0.01820504  0.32618809    -0.82500
O177        O  0.28260392  0.42223607  0.84241013    -0.82000
C178        C  0.09094275  0.40678582  0.83357653     0.97400
O179        O  0.11282145  0.38424394  0.85825100    -0.71100
O180        O  0.17637042  0.34792747  0.81480570    -0.74700
Al181      Al  0.18005559  0.37996566  0.85997230     1.49000
C182        C  0.20826067  0.34654713  0.79067745     0.92600
O183        O  0.20048580  0.46749954  0.76714111    -0.80900
O184        O  0.20046433  0.52245712  0.86803724    -0.74500
Al185      Al  0.23837736  0.44368333  0.80729495     1.90100
O186        O  0.15717368  0.51378501  0.80181643    -0.73600
O187        O  0.13719721  0.46595324  0.89901282    -0.73400
O188        O  0.10158422  0.44918428  0.82706446    -0.79100
O189        O  0.18337451  0.40546677  0.90793051    -0.77300
O190        O  0.19062967  0.43587321  0.83856004    -1.13400
O191        O  0.24432893  0.36223676  0.86509536    -0.72600
C192        C  0.28244766  0.38281756  0.85867888     0.98100
C193        C  0.17181074  0.50137892  0.77024761     0.94500
Al194      Al  0.15189612  0.48373951  0.84844411     1.55600
O195        O  0.23515051  0.38142060  0.78586336    -0.77200
C196        C  0.15836774  0.43829951  0.92068110     0.98700
C197        C  0.23810142  0.53157016  0.85065291     0.93600
O198        O  0.25186757  0.50593175  0.82384530    -0.82500
O199        O  0.20743895  0.01261463  0.67839448    -0.82000
C200        C  0.36564183  0.11536076  0.66954936     0.97400
O201        O  0.35563904  0.07229204  0.67337107    -0.71100
O202        O  0.30192764  0.00378104  0.69560672    -0.74700
Al203      Al  0.30451670  0.04001299  0.65125649     1.49000
C204        C  0.29137413  0.01400602  0.72865669     0.92600
O205        O  0.22302983  0.13322199  0.72409760    -0.80900
O206        O  0.20933390  0.16000344  0.64708980    -0.74500
Al207      Al  0.22039677  0.07322049  0.69860671     1.90100
O208        O  0.28044639  0.16991601  0.69609668    -0.73600
O209        O  0.26836966  0.12457844  0.59964367    -0.73400
O210        O  0.34169866  0.14076520  0.64796538    -0.79100
O211        O  0.31652692  0.06488619  0.60207687    -0.77300
O212        O  0.26588487  0.08565319  0.66623731    -1.13400
O213        O  0.25511936  0.00375483  0.63028105    -0.72600
C214        C  0.21907414  0.99160552  0.64860697     0.98100
C215        C  0.24959778  0.16862446  0.72097841     0.94500
Al216      Al  0.27427726  0.14386309  0.64895579     1.55600
O217        O  0.26219796  0.04677557  0.73515043    -0.77200
C218        C  0.29361461  0.09461939  0.58339275     0.98700
C219        C  0.17207412  0.13717185  0.65193577     0.93600
O220        O  0.17333898  0.09679643  0.66662930    -0.82500
O221        O  0.25735520  0.50922274  0.17713480    -0.82000
C222        C  0.10031981  0.39603633  0.16587797     0.97400
O223        O  0.10012873  0.44016778  0.15981052    -0.71100
O224        O  0.13670483  0.50290427  0.20218044    -0.74700
Al225      Al  0.15088544  0.48486663  0.15334537     1.49000
C226        C  0.15790954  0.50515605  0.23234824     0.92600
O227        O  0.22239632  0.39801383  0.22871174    -0.80900
O228        O  0.25984302  0.39361934  0.12350633    -0.74500
Al229      Al  0.23737071  0.45333513  0.20056098     1.90100
O230        O  0.21799114  0.35089112  0.18098063    -0.73600
O231        O  0.17611392  0.40548782  0.09529926    -0.73400
O232        O  0.13610653  0.37146963  0.15837792    -0.79100
O233        O  0.15404867  0.47792011  0.10052677    -0.77300
O234        O  0.19510199  0.44194595  0.16496005    -1.13400
O235        O  0.19551533  0.53513701  0.14712252    -0.72600
C236        C  0.23756312  0.54002278  0.15727822     0.98100
C237        C  0.22195651  0.35707674  0.21511452     0.94500
Al238      Al  0.19692051  0.38606560  0.14148184     1.55600
O239        O  0.19810040  0.48771394  0.23463207    -0.77200
C240        C  0.16150352  0.44238108  0.08071737     0.98700
C241        C  0.29408373  0.40054642  0.14487190     0.93600
O242        O  0.28759697  0.42123756  0.17555281    -0.82500
O243        O  0.17884658  0.11019632  0.33816761    -0.82000
C244        C  0.36975267  0.12477377  0.33799133     0.97400
O245        O  0.34598738  0.14886825  0.36089664    -0.71100
O246        O  0.28935716  0.18048833  0.31116881    -0.74700
Al247      Al  0.27895861  0.15434526  0.35796739     1.49000
C248        C  0.25944158  0.18084902  0.28597969     0.92600
O249        O  0.26762269  0.05993775  0.26985855    -0.80900
O250        O  0.25497552  0.01412385  0.37380695    -0.74500
Al251      Al  0.22573968  0.08643231  0.30640356     1.90100
O252        O  0.30464109  0.01515586  0.30927203    -0.73600
O253        O  0.31675925  0.07334499  0.40371220    -0.73400
O254        O  0.35953819  0.08183974  0.33324203    -0.79100
O255        O  0.26939584  0.13385673  0.40700255    -0.77300
O256        O  0.26987915  0.09676336  0.33957249    -1.13400
O257        O  0.21423998  0.17321222  0.35800050    -0.72600
C258        C  0.17703647  0.15104142  0.35177542     0.98100
C259        C  0.29426994  0.02531026  0.27624797     0.94500
Al260      Al  0.30649984  0.04989276  0.35417580     1.55600
O261        O  0.23186509  0.14651753  0.28212629    -0.77200
C262        C  0.29384236  0.10304366  0.42282034     0.98700
C263        C  0.21930901  0.00350506  0.35483744     0.93600
O264        O  0.20970588  0.02570965  0.32531624    -0.82500
O265        O  0.39073051  0.69738790  0.83985185    -0.82000
C266        C  0.38136062  0.89368858  0.83742537     0.97400
O267        O  0.35638825  0.86982440  0.85943708    -0.71100
O268        O  0.32144316  0.81083556  0.81267008    -0.74700
Al269      Al  0.35038023  0.80223670  0.85848708     1.49000
C270        C  0.31876752  0.77867216  0.78896529     0.92600
O271        O  0.43387872  0.78431219  0.76598401    -0.80900
O272        O  0.49168023  0.77367047  0.86523252    -0.74500
Al273      Al  0.41202055  0.74343100  0.80504287     1.90100
O274        O  0.48317926  0.82395912  0.80012360    -0.73600
O275        O  0.43665733  0.83699613  0.90038848    -0.73400
O276        O  0.42287978  0.88066810  0.83096744    -0.79100
O277        O  0.37337773  0.79477287  0.90650917    -0.77300
O278        O  0.40583366  0.79023375  0.83758567    -1.13400
O279        O  0.33092786  0.73748764  0.86141650    -0.72600
C280        C  0.35100268  0.69837438  0.85550354     0.98100
C281        C  0.46858483  0.81142129  0.76862954     0.94500
Al282      Al  0.45456189  0.82620548  0.84865036     1.55600
O283        O  0.35071208  0.74841345  0.78495862    -0.77200
C284        C  0.40642552  0.81705082  0.92090585     0.98700
C285        C  0.50022341  0.73743409  0.84558905     0.93600
O286        O  0.47396216  0.72724063  0.81886073    -0.82500
O287        O  0.00256805  0.80599974  0.67834762    -0.82000
C288        C  0.09738007  0.63431859  0.66686869     0.97400
O289        O  0.05622159  0.64010220  0.65438404    -0.71100
O290        O  0.00022328  0.67909026  0.70216743    -0.74700
Al291      Al  0.01643655  0.69636928  0.65380084     1.49000
C292        C  0.99508208  0.70177592  0.73186491     0.92600
O293        O  0.10397231  0.75671381  0.73162379    -0.80900
O294        O  0.11523345  0.78950294  0.62460229    -0.74500
Al295      Al  0.05338764  0.77834694  0.70239629     1.90100
O296        O  0.15340422  0.75187234  0.68515639    -0.73600
O297        O  0.09951464  0.70252799  0.59984862    -0.73400
O298        O  0.12622174  0.66779851  0.66659169    -0.79100
O299        O  0.02431399  0.70876532  0.60199391    -0.77300
O300        O  0.06213455  0.73438776  0.66746920    -1.13400
O301        O  0.96921952  0.74483806  0.65298615    -0.72600
C302        C  0.96826775  0.78779880  0.66249450     0.98100
C303        C  0.14503404  0.75718468  0.71908064     0.94500
Al304      Al  0.11842306  0.72815059  0.64584021     1.55600
O305        O  0.01278307  0.74215474  0.73507300    -0.77200
C306        C  0.06135983  0.70495343  0.58329017     0.98700
C307        C  0.11062460  0.82601471  0.64464041     0.93600
O308        O  0.09129909  0.82396266  0.67656094    -0.82500
O309        O  0.47233703  0.73181014  0.17610148    -0.82000
C310        C  0.38524637  0.90238632  0.16867718     0.97400
O311        O  0.42669189  0.88786038  0.17241771    -0.71100
O312        O  0.48814701  0.82660895  0.19487607    -0.74700
Al313      Al  0.45384344  0.83278108  0.15026317     1.49000
C314        C  0.47774855  0.81559424  0.22790525     0.92600
O315        O  0.35459811  0.75993401  0.22239954    -0.80900
O316        O  0.32479336  0.75141490  0.14756157    -0.74500
Al317      Al  0.41302325  0.75119005  0.19654578     1.90100
O318        O  0.32418382  0.82338684  0.19741657    -0.73600
O319        O  0.36645267  0.80533877  0.09906519    -0.73400
O320        O  0.35843221  0.88083625  0.14702637    -0.79100
O321        O  0.43079539  0.84627176  0.10079488    -0.77300
O322        O  0.40515807  0.79882517  0.16516621    -1.13400
O323        O  0.48618049  0.77976169  0.12921779    -0.72600
C324        C  0.49611207  0.74293206  0.14754791     0.98100
C325        C  0.32246764  0.79065364  0.22102097     0.94500
Al326      Al  0.34830193  0.81409606  0.14892705     1.55600
O327        O  0.44269730  0.78962775  0.23413737    -0.77200
C328        C  0.39979876  0.82513619  0.08237379     0.98700
C329        C  0.34342915  0.71142685  0.15105255     0.93600
O330        O  0.38454764  0.70770966  0.16345419    -0.82500
O331        O  0.07292412  0.83539403  0.34071809    -0.82000
C332        C  0.07609979  0.63852042  0.33605466     0.97400
O333        O  0.10451884  0.66150789  0.35572597    -0.71100
O334        O  0.13973084  0.72249936  0.31016207    -0.74700
Al335      Al  0.11230877  0.72917176  0.35737915     1.49000
C336        C  0.14230413  0.75520276  0.28683193     0.92600
O337        O  0.02332999  0.74873606  0.26892213    -0.80900
O338        O  0.97497775  0.76161816  0.37356450    -0.74500
Al339      Al  0.04871320  0.79000793  0.30710920     1.90100
O340        O  0.97529779  0.71501099  0.30800912    -0.73600
O341        O  0.02765644  0.69433773  0.40270016    -0.73400
O342        O  0.03495755  0.65371858  0.33222281    -0.79100
O343        O  0.09223122  0.73430418  0.40720270    -0.77300
O344        O  0.05629636  0.74306437  0.33946633    -1.13400
O345        O  0.13195574  0.79372094  0.36142263    -0.72600
C346        C  0.11240380  0.83324189  0.35621686     0.98100
C347        C  0.98771655  0.72340286  0.27495923     0.94500
Al348      Al  0.00742402  0.70873695  0.35320820     1.55600
O349        O  0.10922158  0.78449944  0.28374124    -0.77200
C350        C  0.05891582  0.71267614  0.42231839     0.98700
C351        C  0.96391221  0.79699618  0.35405642     0.93600
O352        O  0.98730758  0.80734076  0.32504451    -0.82500
C353        C  0.20150695  0.80994529  0.26149766    -0.12500
C354        C  0.18723076  0.76325545  0.26751301     0.04500
C355        C  0.21948323  0.72632570  0.26125472    -0.07800
C356        C  0.26463922  0.73651495  0.24872352    -0.08500
C357        C  0.27873100  0.78314878  0.24218831    -0.03100
C358        C  0.24686176  0.82012646  0.24924267     0.03800
N359        N  0.26062775  0.86821231  0.24558278     0.66300
H360        H  0.17801018  0.83892545  0.26792215     0.15200
H361        H  0.28808593  0.70744517  0.24244387     0.14900
N362        N  0.20660458  0.67818686  0.26654306     0.74000
O363        O  0.24504211  0.89272986  0.21916458    -0.39500
O364        O  0.28060492  0.88820847  0.27234841    -0.39400
O365        O  0.19384657  0.65407742  0.23903172    -0.40100
O366        O  0.21676973  0.65768323  0.29653656    -0.40200
C367        C  0.01783662  0.70722537  0.52324310    -0.12500
C368        C  0.06067063  0.70408363  0.54191422     0.04500
C369        C  0.10243286  0.70242059  0.52045522    -0.07800
C370        C  0.10054022  0.70397366  0.48172221    -0.08500
C371        C  0.05794714  0.70782140  0.46322793    -0.03100
C372        C  0.01618397  0.70936669  0.48429303     0.03800
N373        N  0.97227753  0.71735721  0.46686373     0.66300
H374        H  0.98541181  0.70939986  0.53891120     0.15200
H375        H  0.13296992  0.70304705  0.46594909     0.14900
N376        N  0.14740046  0.70110785  0.53731045     0.74000
O377        O  0.94746835  0.68275207  0.45767993    -0.39500
O378        O  0.95457432  0.75813544  0.46747067    -0.39400
O379        O  0.17105885  0.66351527  0.53646954    -0.40100
O380        O  0.16690441  0.73920030  0.54614366    -0.40200
C381        C  0.38169910  0.78638376  0.98242354    -0.12500
C382        C  0.40803509  0.81939643  0.96219889     0.04500
C383        C  0.43225641  0.85450958  0.98193736    -0.07800
C384        C  0.42956808  0.85585104  0.02103166    -0.08500
C385        C  0.40244936  0.82310012  0.04105922    -0.03100
C386        C  0.37841266  0.78803236  0.02109352     0.03800
N387        N  0.35068120  0.75324923  0.03955153     0.66300
H388        H  0.36291111  0.75887553  0.96810852     0.15200
H389        H  0.44807133  0.88322797  0.03570356     0.14900
N390        N  0.45776149  0.89034867  0.96279904     0.74000
O391        O  0.30716710  0.75937152  0.04273669    -0.39500
O392        O  0.36813815  0.71343352  0.04676604    -0.39400
O393        O  0.43973159  0.93061767  0.95858630    -0.40100
O394        O  0.50038260  0.88401525  0.95508401    -0.40200
C395        C  0.24672954  0.73475951  0.77988522    -0.12500
C396        C  0.27502161  0.77300379  0.76975169     0.04500
C397        C  0.25768947  0.80891828  0.74691794    -0.07800
C398        C  0.21261401  0.80516643  0.73313262    -0.08500
C399        C  0.18472434  0.76636688  0.74247426    -0.03100
C400        C  0.20124077  0.73161386  0.76669655     0.03800
N401        N  0.17261132  0.69255591  0.77701738     0.66300
H402        H  0.25958921  0.70812052  0.79887171     0.15200
H403        H  0.20006509  0.83135493  0.71360459     0.14900
N404        N  0.28590697  0.84851096  0.73691523     0.74000
O405        O  0.17895686  0.65299122  0.76179998    -0.39500
O406        O  0.13741532  0.69906888  0.79775321    -0.39400
O407        O  0.32554019  0.84240018  0.72200199    -0.40100
O408        O  0.27107647  0.88975228  0.74280798    -0.40200
C409        C  0.11600395  0.92105688  0.35704350    -0.12500
C410        C  0.13769849  0.87774532  0.36497971     0.04500
C411        C  0.18499120  0.87816454  0.37643683    -0.07800
C412        C  0.21024117  0.92049012  0.37630003    -0.08500
C413        C  0.18947887  0.96274936  0.36474945    -0.03100
C414        C  0.14128101  0.96313203  0.35676967     0.03800
N415        N  0.11770650  0.00589004  0.34716727     0.66300
H416        H  0.07962820  0.92221306  0.34909234     0.15200
H417        H  0.24714263  0.91958539  0.38264728     0.14900
N418        N  0.20897575  0.83568066  0.38597429     0.74000
O419        O  0.10968230  0.01496859  0.31348299    -0.39500
O420        O  0.09690023  0.02919745  0.37221136    -0.39400
O421        O  0.23291892  0.81431944  0.36159831    -0.40100
O422        O  0.21290620  0.82429209  0.41970368    -0.40200
C423        C  0.35487279  0.96866725  0.25652961    -0.12500
C424        C  0.31662867  0.99652440  0.24625147     0.04500
C425        C  0.30316406  0.99644356  0.20855669    -0.07800
C426        C  0.32734018  0.96757349  0.18266674    -0.08500
C427        C  0.36575120  0.93968592  0.19353817    -0.03100
C428        C  0.37955502  0.94153363  0.23096361     0.03800
N429        N  0.41783346  0.91472398  0.24446528     0.66300
H430        H  0.36689468  0.96830236  0.28500572     0.15200
H431        H  0.31523020  0.96593197  0.15426909     0.14900
N432        N  0.26394010  0.02340871  0.19647406     0.74000
O433        O  0.45685280  0.93483338  0.24642135    -0.39500
O434        O  0.40940202  0.88027588  0.26561971    -0.39400
O435        O  0.26985747  0.05723183  0.17419258    -0.40100
O436        O  0.22315469  0.00929087  0.20368645    -0.40200
C437        C  0.13693724  0.57650549  0.32171626    -0.12500
C438        C  0.09258587  0.59618941  0.31464957     0.04500
C439        C  0.06838959  0.58009381  0.28296970    -0.07800
C440        C  0.08942019  0.54786287  0.25864322    -0.08500
C441        C  0.13504573  0.53116497  0.26388830    -0.03100
C442        C  0.15816589  0.54427553  0.29683962     0.03800
N443        N  0.20381113  0.52682881  0.30483902     0.66300
H444        H  0.15635274  0.58789545  0.34576058     0.15200
H445        H  0.07028729  0.53795196  0.23403279     0.14900
N446        N  0.02469534  0.59993745  0.27216862     0.74000
O447        O  0.23909521  0.55137461  0.29683943    -0.39500
O448        O  0.20837713  0.49099185  0.32526006    -0.39400
O449        O  0.02232094  0.62108390  0.24139380    -0.40100
O450        O  0.98764195  0.58567401  0.28759495    -0.40200
C451        C  0.33851949  0.62495938  0.14540111    -0.12500
C452        C  0.31564366  0.66837465  0.14377815     0.04500
C453        C  0.26627762  0.66884382  0.14037651    -0.07800
C454        C  0.24119485  0.62635283  0.14204784    -0.08500
C455        C  0.26434055  0.58320383  0.14737352    -0.03100
C456        C  0.31361937  0.58304399  0.14747953     0.03800
N457        N  0.33933320  0.54091865  0.15340040     0.66300
H458        H  0.37623212  0.62336944  0.14739747     0.15200
H459        H  0.20339379  0.62755303  0.14158698     0.14900
N460        N  0.24075305  0.71203697  0.13752621     0.74000
O461        O  0.35094712  0.51572453  0.12592434    -0.39500
O462        O  0.35919813  0.53533352  0.18422699    -0.39400
O463        O  0.22965083  0.72744015  0.10590766    -0.40100
O464        O  0.22247358  0.73008601  0.16623682    -0.40200
C465        C  0.27535535  0.26604002  0.27750516    -0.12500
C466        C  0.25240167  0.22504857  0.26523778     0.04500
C467        C  0.21762791  0.22917955  0.23805779    -0.07800
C468        C  0.20541277  0.27351158  0.22479275    -0.08500
C469        C  0.22812279  0.31429065  0.23716069    -0.03100
C470        C  0.26347975  0.31042009  0.26364653     0.03800
N471        N  0.28970296  0.35061852  0.27473303     0.66300
H472        H  0.30225406  0.26392677  0.29841736     0.15200
H473        H  0.17949736  0.27579058  0.20311773     0.14900
N474        N  0.19550196  0.18874387  0.22262099     0.74000
O475        O  0.27475974  0.37675324  0.30062031    -0.39500
O476        O  0.32650996  0.36148209  0.25727854    -0.39400
O477        O  0.15390676  0.17925269  0.23156099    -0.40100
O478        O  0.21483169  0.16706607  0.19596727    -0.40200
C479        C  0.14173719  0.95423789  0.64523392    -0.12500
C480        C  0.18965502  0.95170160  0.63696886     0.04500
C481        C  0.20857816  0.90900955  0.62341493    -0.07800
C482        C  0.18009032  0.86895802  0.62127059    -0.08500
C483        C  0.13344569  0.87051066  0.63372177    -0.03100
C484        C  0.11379262  0.91415458  0.64412191     0.03800
N485        N  0.06658608  0.91750854  0.65696644     0.66300
H486        H  0.12647695  0.98696245  0.65519167     0.15200
H487        H  0.19595707  0.83544352  0.61395548     0.14900
N488        N  0.25758602  0.90394709  0.61674611     0.74000
O489        O  0.05842215  0.92133707  0.69135198    -0.39500
O490        O  0.03459377  0.92643295  0.63411763    -0.39400
O491        O  0.28457691  0.89757741  0.64382878    -0.40100
O492        O  0.27241277  0.89650725  0.58414748    -0.40200
C493        C  0.38262108  0.94260791  0.78069009    -0.12500
C494        C  0.36049661  0.93231019  0.81451419     0.04500
C495        C  0.31579410  0.95236876  0.82132591    -0.07800
C496        C  0.29419571  0.98056811  0.79393866    -0.08500
C497        C  0.31531957  0.98734751  0.75890568    -0.03100
C498        C  0.36027319  0.96760824  0.75261637     0.03800
N499        N  0.38388006  0.97227019  0.71763346     0.66300
H500        H  0.41748002  0.92823807  0.77475817     0.15200
H501        H  0.25989631  0.99551899  0.79955122     0.14900
N502        N  0.29163547  0.94398700  0.85555567     0.74000
O503        O  0.41500304  0.00314874  0.71356592    -0.39500
O504        O  0.37955033  0.94057122  0.69334884    -0.39400
O505        O  0.29976493  0.96967961  0.88332329    -0.40100
O506        O  0.25706715  0.91662768  0.85626227    -0.40200
C507        C  0.30978254  0.06004390  0.48177744    -0.12500
C508        C  0.29581321  0.10173198  0.46387918     0.04500
C509        C  0.28266264  0.14102111  0.48570733    -0.07800
C510        C  0.28320991  0.13782919  0.52434676    -0.08500
C511        C  0.29651981  0.09604910  0.54233659    -0.03100
C512        C  0.31007468  0.05683551  0.52064329     0.03800
N513        N  0.32147549  0.01273362  0.53743981     0.66300
H514        H  0.31938702  0.02927673  0.46556176     0.15200
H515        H  0.27293187  0.16855374  0.54037467     0.14900
N516        N  0.26881542  0.18466663  0.46924939     0.74000
O517        O  0.29145163  0.98039478  0.53827356    -0.39500
O518        O  0.36340479  0.00328520  0.54499811    -0.39400
O519        O  0.22607499  0.19541745  0.46804489    -0.40100
O520        O  0.29910054  0.21568395  0.46243472    -0.40200
C521        C  0.10536589  0.54172352  0.74114342    -0.12500
C522        C  0.15206562  0.52717017  0.73798659     0.04500
C523        C  0.17813713  0.54160993  0.70663462    -0.07800
C524        C  0.15797866  0.57315987  0.68093051    -0.08500
C525        C  0.11171265  0.58973827  0.68545407    -0.03100
C526        C  0.08461405  0.57142853  0.71505881     0.03800
N527        N  0.03717715  0.58558434  0.72131567     0.66300
H528        H  0.08455030  0.53008469  0.76472019     0.15200
H529        H  0.17962034  0.58738931  0.65880144     0.14900
N530        N  0.22618077  0.52870112  0.70249266     0.74000
O531        O  0.00691113  0.57643284  0.69714972    -0.39500
O532        O  0.02387042  0.59587013  0.75386935    -0.39400
O533        O  0.23960663  0.50633727  0.67401281    -0.40100
O534        O  0.25605317  0.54558678  0.72425359    -0.40200
C535        C  0.31532070  0.56968985  0.85260909    -0.12500
C536        C  0.26726826  0.57285678  0.86006091     0.04500
C537        C  0.24858638  0.61630175  0.87231849    -0.07800
C538        C  0.27765277  0.65607214  0.87413179    -0.08500
C539        C  0.32507612  0.65375751  0.86318005    -0.03100
C540        C  0.34407258  0.60921963  0.85401056     0.03800
N541        N  0.39196209  0.60363907  0.84374195     0.66300
H542        H  0.33060509  0.53635615  0.84404471     0.15200
H543        H  0.26196723  0.68968091  0.88134476     0.14900
N544        N  0.19968917  0.62187897  0.87963020     0.74000
O545        O  0.42194774  0.59748615  0.86875917    -0.39500
O546        O  0.40251667  0.59486912  0.81031926    -0.39400
O547        O  0.18595463  0.63714884  0.91081317    -0.40100
O548        O  0.17109176  0.61927164  0.85325308    -0.40200
C549        C  0.14832222  0.40025417  0.98147677    -0.12500
C550        C  0.15292047  0.44210506  0.96135834     0.04500
C551        C  0.15585275  0.48521464  0.98067302    -0.07800
C552        C  0.15643350  0.48531953  0.01978771    -0.08500
C553        C  0.15430360  0.44286711  0.03990625    -0.03100
C554        C  0.14867484  0.40015948  0.02016195     0.03800
N555        N  0.14362092  0.35601971  0.03887969     0.66300
H556        H  0.14521952  0.36697099  0.96695496     0.15200
H557        H  0.16087802  0.51838668  0.03431609     0.14900
N558        N  0.16228326  0.52850266  0.96108425     0.74000
O559        O  0.10328323  0.34013631  0.04526613    -0.39500
O560        O  0.17855659  0.32911316  0.04206630    -0.39400
O561        O  0.12809271  0.55606988  0.95673476    -0.40100
O562        O  0.20307870  0.54275772  0.95408761    -0.40200
C563        C  0.26355657  0.29089335  0.76102185    -0.12500
C564        C  0.21736432  0.30167876  0.77118275     0.04500
C565        C  0.18275857  0.26668758  0.76748536    -0.07800
C566        C  0.19484204  0.22232922  0.75342632    -0.08500
C567        C  0.24093507  0.21177069  0.74283143    -0.03100
C568        C  0.27562365  0.24658498  0.74698538     0.03800
N569        N  0.32346758  0.23742030  0.73774922     0.66300
H570        H  0.29091478  0.31662687  0.76488038     0.15200
H571        H  0.16747023  0.19668095  0.74930824     0.14900
N572        N  0.13483507  0.27605341  0.77628520     0.74000
O573        O  0.33872343  0.24838810  0.70589754    -0.39500
O574        O  0.35207482  0.23010189  0.76358413    -0.39400
O575        O  0.10603490  0.28032455  0.75017587    -0.40100
O576        O  0.11984434  0.26812076  0.80877124    -0.40200
C577        C  0.53555798  0.87449534  0.24714176    -0.12500
C578        C  0.50672818  0.83718004  0.25794273     0.04500
C579        C  0.50674105  0.82391728  0.29586671    -0.07800
C580        C  0.53477874  0.84874987  0.32165290    -0.08500
C581        C  0.56231036  0.88747240  0.31035574    -0.03100
C582        C  0.56231826  0.89942553  0.27229459     0.03800
N583        N  0.59206171  0.93466577  0.25726082     0.66300
H584        H  0.53749866  0.88545169  0.21830710     0.15200
H585        H  0.53535214  0.83746511  0.35040363     0.14900
N586        N  0.48059888  0.78417513  0.30825502     0.74000
O587        O  0.63189843  0.92190365  0.24584127    -0.39500
O588        O  0.57298088  0.96982526  0.24216857    -0.39400
O589        O  0.49983294  0.74413032  0.30938371    -0.40100
O590        O  0.44075346  0.79007302  0.32277964    -0.40200
C591        C  0.92002888  0.87247432  0.35148853    -0.12500
C592        C  0.92153675  0.82523866  0.36289902     0.04500
C593        C  0.88081596  0.80507227  0.37851783    -0.07800
C594        C  0.83872107  0.83051621  0.37840770    -0.08500
C595        C  0.83614000  0.87604444  0.36317956    -0.03100
C596        C  0.87819884  0.89815909  0.35203984     0.03800
N597        N  0.87919106  0.94624287  0.34034619     0.66300
H598        H  0.95133111  0.88920816  0.34079562     0.15200
H599        H  0.80728663  0.81314770  0.38810313     0.14900
N600        N  0.88028025  0.75754122  0.39163580     0.74000
O601        O  0.89141186  0.97745346  0.36316830    -0.39500
O602        O  0.87821340  0.95593920  0.30612920    -0.39400
O603        O  0.86877784  0.74940421  0.42495613    -0.40100
O604        O  0.88041853  0.72416831  0.36849391    -0.40200
C605        C  0.69711079  0.73770646  0.24804387    -0.12500
C606        C  0.74297295  0.72700782  0.23726890     0.04500
C607        C  0.77769356  0.76204832  0.24041442    -0.07800
C608        C  0.76575950  0.80669843  0.25389916    -0.08500
C609        C  0.71981622  0.81737865  0.26461550    -0.03100
C610        C  0.68526638  0.78223420  0.26156633     0.03800
N611        N  0.63756983  0.79141458  0.27096591     0.66300
H612        H  0.66971180  0.71188698  0.24469118     0.15200
H613        H  0.79313733  0.83247490  0.25751038     0.14900
N614        N  0.82566733  0.75239584  0.23206608     0.74000
O615        O  0.60906100  0.79859494  0.24506605    -0.39500
O616        O  0.62228631  0.77914364  0.30250671    -0.39400
O617        O  0.84075180  0.75889329  0.19940944    -0.40100
O618        O  0.85436052  0.75113269  0.25843378    -0.40200
C619        C  0.92337455  0.67098656  0.25810301    -0.12500
C620        C  0.95869866  0.70105879  0.24534249     0.04500
C621        C  0.96510131  0.70542090  0.20643715    -0.07800
C622        C  0.93553576  0.68048182  0.18184523    -0.08500
C623        C  0.90059064  0.64990676  0.19551796    -0.03100
C624        C  0.89519069  0.64569084  0.23438138     0.03800
N625        N  0.85957649  0.61788901  0.25136436     0.66300
H626        H  0.91664261  0.66651877  0.28757373     0.15200
H627        H  0.94017683  0.68466715  0.15211959     0.14900
N628        N  0.00162561  0.73390962  0.19150547     0.74000
O629        O  0.87220183  0.58728190  0.27460219    -0.39500
O630        O  0.82001119  0.63651157  0.25598280    -0.39400
O631        O  0.03839265  0.71466671  0.17912335    -0.40100
O632        O  0.99435792  0.77709745  0.18552248    -0.40200
C633        C  0.57922631  0.73832384  0.12627629    -0.12500
C634        C  0.53886064  0.71496672  0.13862231     0.04500
C635        C  0.54255298  0.66705727  0.14869017    -0.07800
C636        C  0.58641663  0.64507635  0.14997460    -0.08500
C637        C  0.62756706  0.66943590  0.14074775    -0.03100
C638        C  0.62327630  0.71624080  0.12730402     0.03800
N639        N  0.66339027  0.74325991  0.11721716     0.66300
H640        H  0.57722075  0.77513418  0.11843425     0.15200
H641        H  0.58822167  0.60920353  0.15997096     0.14900
N642        N  0.50206913  0.64035982  0.15842710     0.74000
O643        O  0.67288745  0.74992732  0.08331713    -0.39500
O644        O  0.68346782  0.76769429  0.14154730    -0.39400
O645        O  0.48091382  0.61798508  0.13347132    -0.40100
O646        O  0.49329869  0.63156656  0.19214677    -0.40200
C647        C  0.64756426  0.96897384  0.52570279    -0.12500
C648        C  0.67006584  0.93101799  0.54343544     0.04500
C649        C  0.69055975  0.89543926  0.52104979    -0.07800
C650        C  0.68816008  0.89822944  0.48248475    -0.08500
C651        C  0.66649440  0.93629864  0.46457598    -0.03100
C652        C  0.64624192  0.97227978  0.48666303     0.03800
N653        N  0.62657986  0.01352193  0.47014191     0.66300
H654        H  0.63224172  0.99711477  0.54215930     0.15200
H655        H  0.70408220  0.87000790  0.46645363     0.14900
N656        N  0.71530647  0.85651306  0.53666973     0.74000
O657        O  0.58370193  0.02250734  0.47448611    -0.39500
O658        O  0.65329234  0.04486885  0.45727404    -0.39400
O659        O  0.69327530  0.82008986  0.54639593    -0.40100
O660        O  0.75905811  0.85447508  0.53275330    -0.40200
C661        C  0.56390228  0.82552924  0.69610015    -0.12500
C662        C  0.55538026  0.87154799  0.68324337     0.04500
C663        C  0.51347657  0.89410114  0.69414193    -0.07800
C664        C  0.48317700  0.87199071  0.71957168    -0.08500
C665        C  0.49420051  0.82815357  0.73523631    -0.03100
C666        C  0.53446208  0.80428076  0.72249052     0.03800
N667        N  0.54770717  0.75996295  0.73810314     0.66300
H668        H  0.59580574  0.80725510  0.68802374     0.15200
H669        H  0.45114893  0.89047050  0.72846648     0.14900
N670        N  0.50180230  0.93958757  0.67999361     0.74000
O671        O  0.54406180  0.72305397  0.71887343    -0.39500
O672        O  0.57142031  0.75898398  0.76747536    -0.39400
O673        O  0.47869623  0.94318986  0.65044550    -0.40100
O674        O  0.51006468  0.97585161  0.69899176    -0.40200
C675        C  0.89091738  0.80020619  0.63285838    -0.12500
C676        C  0.92563777  0.81680455  0.65668690     0.04500
C677        C  0.91748320  0.85959060  0.67615471    -0.07800
C678        C  0.87464656  0.88279744  0.67273242    -0.08500
C679        C  0.83847451  0.86416475  0.65139271    -0.03100
C680        C  0.84754861  0.82302518  0.63022225     0.03800
N681        N  0.81332580  0.80317606  0.60629500     0.66300
H682        H  0.89670701  0.76815080  0.61710175     0.15200
H683        H  0.86852787  0.91380471  0.68964443     0.14900
N684        N  0.95023498  0.87842153  0.70201097     0.74000
O685        O  0.82214947  0.80086733  0.57192687    -0.39500
O686        O  0.78271241  0.77625963  0.61994440    -0.39400
O687        O  0.96046437  0.92155995  0.70022546    -0.40100
O688        O  0.95836405  0.85623892  0.73168703    -0.40200
C689        C  0.79474950  0.63075887  0.98143892    -0.12500
C690        C  0.80116252  0.58707133  0.96383037     0.04500
C691        C  0.81088477  0.54705798  0.98585989    -0.07800
C692        C  0.81246163  0.55133790  0.02483153    -0.08500
C693        C  0.80377260  0.59484084  0.04234083    -0.03100
C694        C  0.79618875  0.63503251  0.02002911     0.03800
N695        N  0.79060852  0.68080565  0.03605719     0.66300
H696        H  0.78852765  0.66220461  0.96507165     0.15200
H697        H  0.81800805  0.52004813  0.04150844     0.14900
N698        N  0.81580124  0.50143943  0.96946610     0.74000
O699        O  0.82625426  0.70465054  0.04383392    -0.39500
O700        O  0.75098783  0.70041754  0.03620281    -0.39400
O701        O  0.85372175  0.47906174  0.97260885    -0.40100
O702        O  0.78020527  0.48050453  0.95752193    -0.40200
C703        C  0.76734682  0.74837995  0.77723470    -0.12500
C704        C  0.74118990  0.70851062  0.76743433     0.04500
C705        C  0.70393386  0.71385433  0.74253669    -0.07800
C706        C  0.69260328  0.75854516  0.72911869    -0.08500
C707        C  0.71838390  0.79855803  0.73929387    -0.03100
C708        C  0.75637909  0.79295082  0.76358724     0.03800
N709        N  0.78479269  0.83178071  0.77436357     0.66300
H710        H  0.79615302  0.74542786  0.79642238     0.15200
H711        H  0.66413962  0.76147103  0.70962931     0.14900
N712        N  0.67786091  0.67430981  0.72989287     0.74000
O713        O  0.77544467  0.85365688  0.80404759    -0.39500
O714        O  0.82349002  0.83845340  0.75820156    -0.39400
O715        O  0.63796136  0.66621569  0.74352449    -0.40100
O716        O  0.69142806  0.65215826  0.70134793    -0.40200
C717        C  0.93639899  0.66299789  0.82388662    -0.12500
C718        C  0.90152740  0.63304720  0.81001864     0.04500
C719        C  0.89840267  0.62742090  0.77107913    -0.07800
C720        C  0.92846714  0.65160047  0.74740453    -0.08500
C721        C  0.96381117  0.68065210  0.76067951    -0.03100
C722        C  0.96809232  0.68607652  0.79953250     0.03800
N723        N  0.00608376  0.71177904  0.81467150     0.66300
H724        H  0.93974477  0.66758553  0.85362565     0.15200
H725        H  0.92374160  0.64740606  0.71771854     0.14900
N726        N  0.86371712  0.59884379  0.75419483     0.74000
O727        O  0.00085966  0.75474346  0.82264784    -0.39500
O728        O  0.04136435  0.68972478  0.82635363    -0.39400
O729        O  0.82295633  0.61519609  0.75170642    -0.40100
O730        O  0.87693745  0.56871035  0.73055737    -0.40200
C731        C  0.58920108  0.63670719  0.84033802    -0.12500
C732        C  0.62658344  0.65486340  0.86052121     0.04500
C733        C  0.62057117  0.69880544  0.87846257    -0.07800
C734        C  0.57855923  0.72417100  0.87456576    -0.08500
C735        C  0.54222601  0.70725623  0.85225704    -0.03100
C736        C  0.54803759  0.66239945  0.83519261     0.03800
N737        N  0.51384076  0.64253147  0.81110560     0.66300
H738        H  0.59303375  0.60346872  0.82579872     0.15200
H739        H  0.57515147  0.75815780  0.88802099     0.14900
N740        N  0.65706362  0.71875250  0.90005751     0.74000
O741        O  0.51034573  0.65830707  0.77844381    -0.39500
O742        O  0.49943063  0.60144967  0.81776633    -0.39400
O743        O  0.68000805  0.75314323  0.88742781    -0.40100
O744        O  0.66131297  0.70704463  0.93369087    -0.40200
C745        C  0.07812024  0.22868506  0.63080901    -0.12500
C746        C  0.03798142  0.20481620  0.64268448     0.04500
C747        C  0.04144184  0.15659089  0.65181984    -0.07800
C748        C  0.08510717  0.13424725  0.65169795    -0.08500
C749        C  0.12613338  0.15924699  0.64329449    -0.03100
C750        C  0.12198833  0.20664141  0.63124942     0.03800
N751        N  0.16207588  0.23411162  0.62190658     0.66300
H752        H  0.07603822  0.26575146  0.62373804     0.15200
H753        H  0.08697424  0.09770730  0.66029760     0.14900
N754        N  0.00113624  0.13012048  0.66246259     0.74000
O755        O  0.17653593  0.23529696  0.58869111    -0.39500
O756        O  0.17762276  0.26329224  0.64509949    -0.39400
O757        O  0.98204667  0.10372148  0.63892582    -0.40100
O758        O  0.99118696  0.12522058  0.69648184    -0.40200
C759        C  0.03292753  0.36319090  0.74621924    -0.12500
C760        C  0.99966445  0.33085284  0.75903649     0.04500
C761        C  0.99582245  0.32357320  0.79784299    -0.07800
C762        C  0.02520175  0.34872000  0.82236393    -0.08500
C763        C  0.05775412  0.38187373  0.80874940    -0.03100
C764        C  0.06150256  0.38805689  0.76994358     0.03800
N765        N  0.09719771  0.41592490  0.75310215     0.66300
H766        H  0.03801355  0.36927810  0.71673732     0.15200
H767        H  0.02245152  0.34247295  0.85200142     0.14900
N768        N  0.96297209  0.29083377  0.81273496     0.74000
O769        O  0.13801513  0.39932055  0.75221601    -0.39500
O770        O  0.08561558  0.44471011  0.72808237    -0.39400
O771        O  0.97655195  0.25036261  0.82246240    -0.40100
O772        O  0.92263154  0.30485257  0.82192507    -0.40200
C773        C  0.81509021  0.44490887  0.68414765    -0.12500
C774        C  0.86123166  0.42893229  0.69009400     0.04500
C775        C  0.88455107  0.44495002  0.72220932    -0.07800
C776        C  0.86036827  0.47164954  0.74870955    -0.08500
C777        C  0.81411085  0.48624895  0.74349435    -0.03100
C778        C  0.79182872  0.47410533  0.71015133     0.03800
N779        N  0.74467536  0.48805245  0.70355360     0.66300
H780        H  0.79622324  0.43317842  0.65992650     0.15200
H781        H  0.87854440  0.48195087  0.77370532     0.14900
N782        N  0.93216357  0.43301625  0.72961523     0.74000
O783        O  0.73635975  0.52728111  0.68844269    -0.39500
O784        O  0.71225196  0.45846399  0.70729723    -0.39400
O785        O  0.96392980  0.44802608  0.70820951    -0.40100
O786        O  0.94295632  0.41832123  0.76152014    -0.40200
C787        C  0.84441889  0.10726484  0.65659219    -0.12500
C788        C  0.82484099  0.14887830  0.64246130     0.04500
C789        C  0.77883275  0.14747403  0.62834767    -0.07800
C790        C  0.75204292  0.10645985  0.63244794    -0.08500
C791        C  0.77039621  0.06648114  0.65003309    -0.03100
C792        C  0.81778521  0.06656672  0.66072453     0.03800
N793        N  0.83925784  0.02602642  0.67694665     0.66300
H794        H  0.87982809  0.10691357  0.66693301     0.15200
H795        H  0.71610195  0.10663386  0.62332489     0.14900
N796        N  0.75810633  0.18785882  0.61122730     0.74000
O797        O  0.86273933  0.99848855  0.65650264    -0.39500
O798        O  0.84412177  0.02411403  0.71174434    -0.39400
O799        O  0.77558268  0.20455155  0.58174060    -0.40100
O800        O  0.72148948  0.20602265  0.62487212    -0.40200
C801        C  0.43132209  0.17294867  0.68171179    -0.12500
C802        C  0.40072118  0.13739445  0.69433038     0.04500
C803        C  0.40022766  0.12647031  0.73257119    -0.07800
C804        C  0.42921272  0.15007686  0.75673015    -0.08500
C805        C  0.45940937  0.18588735  0.74501901    -0.03100
C806        C  0.46113027  0.19677829  0.70668542     0.03800
N807        N  0.49195592  0.23210725  0.69280573     0.66300
H808        H  0.43187552  0.18242005  0.65254576     0.15200
H809        H  0.42645247  0.14062692  0.78584353     0.14900
N810        N  0.36627408  0.09612112  0.74896097     0.74000
O811        O  0.53366228  0.22135273  0.68488515    -0.39500
O812        O  0.47573623  0.27136612  0.68257089    -0.39400
O813        O  0.37986174  0.06587271  0.77222893    -0.41700
O814        O  0.32506918  0.11139358  0.75177936    -0.40200
C815        C  0.37507444  0.28782461  0.87513696    -0.12500
C816        C  0.41552849  0.31166269  0.86342270     0.04500
C817        C  0.41214320  0.36058566  0.85627942    -0.07800
C818        C  0.36890579  0.38348792  0.85853962    -0.08500
C819        C  0.32777857  0.35894021  0.86651376    -0.03100
C820        C  0.33137902  0.31071496  0.87635721     0.03800
N821        N  0.29090993  0.28356945  0.88523752     0.66300
H822        H  0.37672557  0.25038673  0.88091331     0.15200
H823        H  0.36739886  0.42064655  0.85169275     0.14900
N824        N  0.45188578  0.38835354  0.84672434     0.74000
O825        O  0.26916005  0.26298394  0.85964787    -0.39500
O826        O  0.28192121  0.27353307  0.91870309    -0.39400
O827        O  0.46801281  0.38630622  0.81400583    -0.40100
O828        O  0.45939114  0.42486149  0.86568506    -0.40200
C829        C  0.74039062  0.30292118  0.73982485    -0.12500
C830        C  0.77372474  0.26647213  0.73991162     0.04500
C831        C  0.76120240  0.22227858  0.75493771    -0.07800
C832        C  0.71587759  0.21506844  0.76831628    -0.08500
C833        C  0.68228413  0.25128169  0.76774189    -0.03100
C834        C  0.69518252  0.29587758  0.75357636     0.03800
N835        N  0.66339579  0.33484420  0.75368814     0.66300
H836        H  0.74918549  0.33712661  0.72840194     0.15200
H837        H  0.70720392  0.18082937  0.77972372     0.14900
N838        N  0.79349706  0.18378746  0.75594246     0.74000
O839        O  0.66596866  0.36553816  0.77891679    -0.39500
O840        O  0.63955770  0.34335891  0.72513412    -0.39400
O841        O  0.81749466  0.17704941  0.78470378    -0.40100
O842        O  0.79125367  0.15181350  0.73170435    -0.40200
C843        C  0.58978274  0.02945946  0.76360721    -0.12500
C844        C  0.63718993  0.01856259  0.76731338     0.04500
C845        C  0.66127555  0.03692153  0.79796078    -0.07800
C846        C  0.63834913  0.06815869  0.82261336    -0.08500
C847        C  0.59138895  0.08204542  0.81729533    -0.03100
C848        C  0.56665547  0.06035791  0.78803759     0.03800
N849        N  0.51916086  0.07197859  0.78040083     0.66300
H850        H  0.57081940  0.01529879  0.74031702     0.15200
H851        H  0.65857530  0.08414502  0.84450026     0.14900
N852        N  0.71014713  0.02851033  0.80208566     0.74000
O853        O  0.50888963  0.08706601  0.74850554    -0.39500
O854        O  0.48728490  0.05575071  0.80110727    -0.39400
O855        O  0.73909000  0.05576125  0.78663028    -0.40100
O856        O  0.72414932  0.99892578  0.82571372    -0.40200
C857        C  0.64567252  0.44733809  0.86724493    -0.12500
C858        C  0.69423976  0.44241352  0.86578477     0.04500
C859        C  0.71427549  0.39720163  0.86773085    -0.07800
C860        C  0.68522125  0.35765749  0.86915921    -0.08500
C861        C  0.63621535  0.36228062  0.86722940    -0.03100
C862        C  0.61665983  0.40792819  0.86804772     0.03800
N863        N  0.56748392  0.41521181  0.86833201     0.66300
H864        H  0.63006299  0.48218089  0.86601370     0.15200
H865        H  0.70145802  0.32312900  0.86810324     0.14900
N866        N  0.76350125  0.39052076  0.86313535     0.74000
O867        O  0.54513377  0.40959711  0.89838093    -0.39500
O868        O  0.54928111  0.43846717  0.84227150    -0.39400
O869        O  0.78671690  0.37145101  0.88873789    -0.40100
O870        O  0.78191775  0.39561692  0.83138649    -0.40200
C871        C  0.07938947  0.24036743  0.37125546    -0.12500
C872        C  0.04203574  0.21888269  0.35278058     0.04500
C873        C  0.04893803  0.17322314  0.33773379    -0.07800
C874        C  0.09223755  0.15113199  0.34077851    -0.08500
C875        C  0.13055205  0.17380050  0.35661595    -0.03100
C876        C  0.12367254  0.21888796  0.37252499     0.03800
N877        N  0.16136961  0.24441070  0.38851356     0.66300
H878        H  0.07513237  0.27542441  0.38272914     0.15200
H879        H  0.09636981  0.11670825  0.32815908     0.14900
N880        N  0.01331605  0.14861522  0.31812083     0.74000
O881        O  0.18811856  0.26799039  0.36763864    -0.39500
O882        O  0.16110104  0.25231755  0.42301101    -0.39400
O883        O  0.00560388  0.15946867  0.28471253    -0.40100
O884        O  0.00249973  0.10784450  0.32899949    -0.40200
C885        C  0.07161374  0.33145014  0.20658945    -0.12500
C886        C  0.06086802  0.37242414  0.18623801     0.04500
C887        C  0.01544164  0.39180230  0.19035501    -0.07800
C888        C  0.98286934  0.37080474  0.21502287    -0.08500
C889        C  0.99537040  0.33185067  0.23699408    -0.03100
C890        C  0.04013297  0.31202901  0.23221835     0.03800
N891        N  0.05553459  0.27410884  0.25526370     0.66300
H892        H  0.10618162  0.31605605  0.20481803     0.15200
H893        H  0.94871353  0.38675252  0.21870728     0.14900
N894        N  0.00241413  0.43374511  0.17106626     0.74000
O895        O  0.05456752  0.23258928  0.24287829    -0.39500
O896        O  0.07961462  0.28302029  0.28356574    -0.39400
O897        O  0.97815200  0.43084470  0.14208954    -0.40100
O898        O  0.00724791  0.47319149  0.18666472    -0.40200
C899        C  0.86157086  0.32871505  0.48199366    -0.12500
C900        C  0.90422557  0.32554020  0.46261621     0.04500
C901        C  0.94597935  0.32190125  0.48290158    -0.07800
C902        C  0.94416171  0.32051753  0.52198169    -0.08500
C903        C  0.90112865  0.32170908  0.54115467    -0.03100
C904        C  0.85969546  0.32691860  0.52075066     0.03800
N905        N  0.81543462  0.33173884  0.53903668     0.66300
H906        H  0.82919671  0.33230319  0.46686115     0.15200
H907        H  0.97629239  0.31618691  0.53730017     0.14900
N908        N  0.98985484  0.31554073  0.46430348     0.74000
O909        O  0.79972723  0.37231991  0.54633438    -0.39500
O910        O  0.78869851  0.29668571  0.54146421    -0.39400
O911        O  0.01947577  0.34826535  0.46433227    -0.40100
O912        O  0.00169271  0.27511301  0.45297848    -0.40200
C913        C  0.80706384  0.44920094  0.31913250    -0.12500
C914        C  0.85572590  0.44079056  0.31795538     0.04500
C915        C  0.88259090  0.46541190  0.29118748    -0.07800
C916        C  0.86015647  0.49111780  0.26316905    -0.08500
C917        C  0.81170836  0.49927475  0.26401426    -0.03100
C918        C  0.78516522  0.47893114  0.29298211     0.03800
N919        N  0.73554285  0.48417742  0.29404786     0.66300
H920        H  0.78544210  0.43062721  0.33912265     0.15200
H921        H  0.88116199  0.50690194  0.24129714     0.14900
N922        N  0.93262283  0.46560407  0.29261930     0.74000
O923        O  0.71085146  0.46209896  0.27107712    -0.39500
O924        O  0.71618844  0.50505346  0.32107457    -0.39400
O925        O  0.95662618  0.46084559  0.26328301    -0.40100
O926        O  0.95264018  0.47714655  0.32234832    -0.40200
C927        C  0.81719598  0.07464631  0.35682324    -0.12500
C928        C  0.77018216  0.07778643  0.36772365     0.04500
C929        C  0.75391260  0.11992242  0.38401905    -0.07800
C930        C  0.78305982  0.15964135  0.38419973    -0.08500
C931        C  0.82834684  0.15801883  0.36837165    -0.03100
C932        C  0.84630697  0.11380803  0.35726814     0.03800
N933        N  0.89327990  0.10798116  0.34462771     0.66300
H934        H  0.83084973  0.04199782  0.34550633     0.15200
H935        H  0.76869955  0.19274667  0.39410994     0.14900
N936        N  0.70703528  0.12438183  0.39749252     0.74000
O937        O  0.92192627  0.08774422  0.36581344    -0.39500
O938        O  0.90202050  0.10991902  0.31021423    -0.39400
O939        O  0.69975170  0.13324775  0.43142101    -0.40100
O940        O  0.67403796  0.12864296  0.37473646    -0.40200
C941        C  0.42830078  0.16293277  0.24847942    -0.12500
C942        C  0.45543642  0.20153014  0.25863066     0.04500
C943        C  0.45559927  0.21488411  0.29646089    -0.07800
C944        C  0.42913025  0.18881315  0.32291261    -0.08500
C945        C  0.40338635  0.14871400  0.31222032    -0.03100
C946        C  0.40371214  0.13646369  0.27429111     0.03800
N947        N  0.37767960  0.09796285  0.26038056     0.66300
H948        H  0.42694944  0.15143405  0.21978628     0.15200
H949        H  0.42804106  0.20036048  0.35159088     0.14900
N950        N  0.48023072  0.25585401  0.30800561     0.74000
O951        O  0.34254229  0.10700598  0.24069030    -0.39500
O952        O  0.39893774  0.05943555  0.25560712    -0.39400
O953        O  0.46557992  0.29620669  0.29892803    -0.40100
O954        O  0.51873393  0.25167203  0.32443570    -0.40200
C955        C  0.42337447  0.36901591  0.15146179    -0.12500
C956        C  0.42442683  0.32415654  0.13560367     0.04500
C957        C  0.38473980  0.30868989  0.11629439    -0.07800
C958        C  0.34357744  0.33631501  0.11683646    -0.08500
C959        C  0.34097597  0.37907902  0.13688735    -0.03100
C960        C  0.38250608  0.39569007  0.15363911     0.03800
N961        N  0.38463180  0.43810703  0.17492908     0.66300
H962        H  0.45398538  0.38221105  0.16549528     0.15200
H963        H  0.31260965  0.32251800  0.10374755     0.14900
N964        N  0.38456016  0.26385059  0.09833234     0.74000
O965        O  0.36654994  0.43862102  0.20704478    -0.39500
O966        O  0.41801278  0.46587354  0.16829799    -0.39400
O967        O  0.36689449  0.22869700  0.11455493    -0.40100
O968        O  0.40488335  0.25864785  0.06732710    -0.40200
C969        C  0.51673044  0.19773709  0.02398809    -0.12500
C970        C  0.56010965  0.19992103  0.04179016     0.04500
C971        C  0.60135787  0.19832023  0.02022540    -0.07800
C972        C  0.59869692  0.19686799  0.98155847    -0.08500
C973        C  0.55544011  0.19642674  0.96353510    -0.03100
C974        C  0.51405001  0.19601383  0.98510894     0.03800
N975        N  0.46920321  0.19713651  0.96806946     0.66300
H976        H  0.48471780  0.19911641  0.04025636     0.15200
H977        H  0.63088374  0.19625902  0.96547081     0.14900
N978        N  0.64625599  0.19703398  0.03719160     0.74000
O979        O  0.44907531  0.15900273  0.96034700    -0.39500
O980        O  0.44644559  0.23527744  0.96703844    -0.39400
O981        O  0.66272479  0.15822631  0.04823030    -0.40100
O982        O  0.67241269  0.23258165  0.03526292    -0.40200
C983        C  0.71173078  0.22269673  0.24309672    -0.12500
C984        C  0.68048437  0.26074271  0.24027773     0.04500
C985        C  0.69411210  0.30536974  0.25354732    -0.07800
C986        C  0.73865754  0.31127099  0.26820327    -0.08500
C987        C  0.77030343  0.27344676  0.27018208    -0.03100
C988        C  0.75616277  0.22854109  0.25791206     0.03800
N989        N  0.78553303  0.18801951  0.26163833     0.66300
H990        H  0.70185661  0.18808727  0.23326802     0.15200
H991        H  0.74853976  0.34586318  0.27806348     0.14900
N992        N  0.66414927  0.34559942  0.25091122     0.74000
O993        O  0.78207784  0.16291129  0.29045135    -0.39500
O994        O  0.80632587  0.17169683  0.23335562    -0.39400
O995        O  0.64129510  0.35898285  0.27916358    -0.40100
O996        O  0.66791557  0.37278381  0.22331551    -0.40200
C997        C  0.60359074  0.06484499  0.25601054    -0.12500
C998        C  0.64551896  0.04205417  0.24668993     0.04500
C999        C  0.66312247  0.04702555  0.21013638    -0.07800
C1000       C  0.63974002  0.07659089  0.18466062    -0.08500
C1001       C  0.59780481  0.09993879  0.19459003    -0.03100
C1002       C  0.57951066  0.09234962  0.23061006     0.03800
N1003       N  0.53739982  0.11405382  0.24312967     0.66300
H1004       H  0.58839927  0.06084564  0.28354402     0.15200
H1005       H  0.65497875  0.08211046  0.15734341     0.14900
N1006       N  0.70552025  0.02426987  0.19900037     0.74000
O1007       O  0.49989401  0.09155901  0.23943797    -0.39500
O1008       O  0.53985666  0.14522727  0.26799360    -0.39400
O1009       O  0.70414408  0.98429565  0.18376617    -0.40100
O1010       O  0.74338171  0.04675191  0.19946472    -0.40200
C1011       C  0.61620547  0.41877200  0.14622738    -0.12500
C1012       C  0.63795372  0.37548544  0.13826682     0.04500
C1013       C  0.68624624  0.37548431  0.12897401    -0.07800
C1014       C  0.71208757  0.41736395  0.13131725    -0.08500
C1015       C  0.69081157  0.45966559  0.14251938    -0.03100
C1016       C  0.64198454  0.46036878  0.14856581     0.03800
N1017       N  0.61796085  0.50302318  0.15786947     0.66300
H1018       H  0.57923016  0.42017379  0.15279946     0.15200
H1019       H  0.74944299  0.41618180  0.12634385     0.14900
N1020       N  0.71031382  0.33288207  0.11942161     0.74000
O1021       O  0.59799538  0.52594712  0.13247814    -0.39500
O1022       O  0.60746741  0.51137240  0.19137804    -0.39400
O1023       O  0.70190793  0.31247167  0.08908528    -0.40100
O1024       O  0.74060293  0.31602272  0.14099287    -0.40200
loop_ 
_geom_bond_atom_site_label_1 
_geom_bond_atom_site_label_2 
_geom_bond_distance 
_geom_bond_site_symmetry_2 
_ccdc_geom_bond_type 
O1           C16   1.270       .  A
O1           Al9   1.907       .  S
C2           O12   1.265       .  A
C2            O3   1.266       .  A
C2         C1001   1.493       .  S
O3           Al5   1.911       .  S
O4            C6   1.260       .  A
O4           Al5   1.892       .  S
Al5          O13   1.917       .  S
Al5          O15   1.921       .  S
Al5          O14   1.779       .  S
C6           O19   1.266       .  A
C6          C942   1.495       .  S
O7           C17   1.262       .  A
O7           Al9   1.918       .  S
O8           C21   1.263       .  A
O8          Al18   1.916       .  S
Al9          O22   1.905       .  S
Al9          O19   1.941       .  S
Al9          O14   1.777       .  S
O10          C17   1.256       .  A
O10         Al18   1.872       .  S
O11          C20   1.258       .  A
O11         Al18   1.886       .  S
O12         Al18   1.927       .  S
O13          C20   1.261       .  A
O14         Al18   1.779       .  S
O15          C16   1.269       .  A
C16         C956   1.488       .  S
C17         C984   1.475       .  S
C20         C970   1.475       .  S
C21          O22   1.265       .  A
C21        C1012   1.494       .  S
O23          C38   1.265       .  A
O23         Al31   1.910       .  S
C24          O34   1.262       .  A
C24          O25   1.263       .  A
C24         C914   1.501       .  S
O25         Al27   1.927       .  S
O26          C28   1.254       .  A
O26         Al27   1.869       .  S
Al27         O35   1.865       .  S
Al27         O37   1.915       .  S
Al27         O36   1.784       .  S
C28          O41   1.262       .  A
C28         C987   1.475       .  S
O29          C39   1.267       .  A
O29         Al31   1.935       .  S
O30          C43   1.266       .  A
O30         Al40   1.911       .  S
Al31         O44   1.905       .  S
Al31         O41   1.923       .  S
Al31         O36   1.781       .  S
O32          C39   1.263       .  A
O32         Al40   1.918       .  S
O33          C42   1.266       .  A
O33         Al40   1.943       .  S
O34         Al40   1.900       .  S
O35          C42   1.254       .  A
O36         Al40   1.782       .  S
O37          C38   1.264       .  A
C38         C931   1.491       .  S
C39         C889   1.485       .  S
C42         C900   1.480       .  S
C43          O44   1.262       .  A
C43         C872   1.486   1_655  S
O45          C60   1.269       .  A
O45         Al53   1.922       .  S
C46          O56   1.264       .  A
C46          O47   1.264       .  A
C46         C847   1.504       .  S
O47         Al49   1.924       .  S
O48          C50   1.256       .  A
O48         Al49   1.876       .  S
Al49         O57   1.867       .  S
Al49         O59   1.904       .  S
Al49         O58   1.775       .  S
C50          O63   1.262       .  A
C50         C833   1.480       .  S
O51          C61   1.268       .  A
O51         Al53   1.950       .  S
O52          C65   1.269       .  A
O52         Al62   1.918       .  S
Al53         O66   1.927       .  S
Al53         O63   1.921       .  S
Al53         O58   1.784       .  S
O54          C61   1.261       .  A
O54         Al62   1.882       .  S
O55          C64   1.264       .  A
O55         Al62   1.931       .  S
O56         Al62   1.925       .  S
O57          C64   1.255       .  A
O58         Al62   1.776       .  S
O59          C60   1.263       .  A
C60         C861   1.489       .  S
C61         C805   1.496       .  S
C64         C973   1.477       .  S
C65          O66   1.267       .  A
C65         C816   1.490       .  S
O67          C82   1.268       .  A
O67         Al75   1.919       .  S
C68          O78   1.266       .  A
C68          O69   1.263       .  A
C68         C774   1.495       .  S
O69         Al71   1.899       .  S
O70          C72   1.260       .  A
O70         Al71   1.885       .  S
Al71         O79   1.921       .  S
Al71         O81   1.908       .  S
Al71         O80   1.773       .  S
C72          O85   1.267       .  A
C72         C760   1.498       .  S
O73          C83   1.262       .  A
O73         Al75   1.917       .  S
O74          C87   1.264       .  A
O74         Al84   1.914       .  S
Al75         O88   1.894       .  S
Al75         O85   1.948       .  S
Al75         O80   1.783       .  S
O76          C83   1.256       .  A
O76         Al84   1.876       .  S
O77          C86   1.258       .  A
O77         Al84   1.891       .  S
O78         Al84   1.928       .  S
O79          C86   1.260       .  A
O80         Al84   1.779       .  S
O81          C82   1.268       .  A
C82         C746   1.478   1_655  S
C83         C830   1.479       .  S
C86         C903   1.480       .  S
C87          O88   1.264       .  A
C87         C788   1.487       .  S
O89         C104   1.263       .  A
O89         Al97   1.895       .  S
C90         O100   1.262       .  A
C90          O91   1.266       .  A
C90         C718   1.492       .  S
O91         Al93   1.939       .  S
O92          C94   1.254       .  A
O92         Al93   1.854       .  S
Al93        O101   1.871       .  S
Al93        O103   1.928       .  S
Al93        O102   1.781       .  S
C94         O107   1.266       .  A
C94         C704   1.476       .  S
O95         C105   1.265       .  A
O95         Al97   1.926       .  S
O96         C109   1.268       .  A
O96        Al106   1.907       .  S
Al97        O110   1.903       .  S
Al97        O107   1.930       .  S
Al97        O102   1.777       .  S
O98         C105   1.260       .  A
O98        Al106   1.897       .  S
O99         C108   1.268       .  A
O99        Al106   1.949       .  S
O100       Al106   1.910       .  S
O101        C108   1.257       .  A
O102       Al106   1.781       .  S
O103        C104   1.264       .  A
C104        C732   1.490       .  S
C105        C777   1.486       .  S
C108        C690   1.485       .  S
C109        O110   1.266       .  A
C109        C858   1.468       .  S
O111        C126   1.264       .  A
O111       Al119   1.903   1_545  S
C112        O122   1.265       .  A
C112        O113   1.265       .  A
C112        C662   1.489       .  S
O113       Al115   1.913       .  S
O114        C116   1.263   1_545  A
O114       Al115   1.912   1_545  S
Al115       O123   1.939       .  S
Al115       O125   1.919   1_565  S
Al115       O124   1.780       .  S
C116        O129   1.264       .  A
C116        C844   1.487   1_565  S
O117        C127   1.263       .  A
O117       Al119   1.916       .  S
O118        C131   1.260       .  A
O118       Al128   1.914       .  S
Al119       O132   1.895       .  S
Al119       O129   1.923       .  S
Al119       O124   1.781       .  S
O120        C127   1.255       .  A
O120       Al128   1.866       .  S
O121        C130   1.256       .  A
O121       Al128   1.878       .  S
O122       Al128   1.921       .  S
O123        C130   1.265       .  A
O124       Al128   1.779       .  S
O125        C126   1.269       .  A
C126        C791   1.481       .  S
C127        C707   1.477       .  S
C130        C648   1.490       .  S
C131        O132   1.262       .  A
C131        C679   1.487       .  S
O133        C148   1.268       .  A
O133       Al141   1.911       .  S
C134        O144   1.266       .  A
C134        O135   1.265       .  A
C134        C623   1.493       .  S
O135       Al137   1.917       .  S
O136        C138   1.256       .  A
O136       Al137   1.898       .  S
Al137       O145   1.940       .  S
Al137       O147   1.925       .  S
Al137       O146   1.786       .  S
C138        O151   1.268       .  A
C138        C917   1.493       .  S
O139        C149   1.269       .  A
O139       Al141   1.933       .  S
O140        C153   1.263       .  A
O140       Al150   1.924       .  S
Al141       O154   1.903       .  S
Al141       O151   1.945       .  S
Al141       O146   1.779       .  S
O142        C149   1.251       .  A
O142       Al150   1.856       .  S
O143        C152   1.255       .  A
O143       Al150   1.877       .  S
O144       Al150   1.938       .  S
O145        C152   1.264       .  A
O146       Al150   1.790       .  S
O147        C148   1.273       .  A
C148       C1015   1.486       .  S
C149        C606   1.472       .  S
C152        C693   1.485       .  S
C153        O154   1.263       .  A
C153        C637   1.498       .  S
O155        C170   1.258       .  A
O155       Al163   1.890       .  S
C156        O166   1.267       .  A
C156        O157   1.266       .  A
C156        C581   1.501       .  S
O157       Al159   1.938       .  S
O158        C160   1.250       .  A
O158       Al159   1.856       .  S
Al159       O167   1.867       .  S
Al159       O169   1.928       .  S
Al159       O168   1.776       .  S
C160        O173   1.268       .  A
C160        C609   1.472       .  S
O161        C171   1.265   1_565  A
O161       Al163   1.920       .  S
O162        C175   1.271       .  A
O162       Al172   1.924   1_545  S
Al163       O176   1.901   1_565  S
Al163       O173   1.937       .  S
Al163       O168   1.777       .  S
O164        C171   1.261       .  A
O164       Al172   1.897   1_545  S
O165        C174   1.266       .  A
O165       Al172   1.947       .  S
O166       Al172   1.924       .  S
O167        C174   1.256       .  A
O168       Al172   1.778       .  S
O169        C170   1.266       .  A
C170        C595   1.490       .  S
C171        C998   1.488       .  S
C174        C651   1.489       .  S
C175        O176   1.268       .  A
C175        C928   1.480       .  S
O177        C192   1.263       .  A
O177       Al185   1.896       .  S
C178        O188   1.265       .  A
C178        O179   1.264       .  A
C178        C763   1.492       .  S
O179       Al181   1.931       .  S
O180        C182   1.255       .  A
O180       Al181   1.867       .  S
Al181       O189   1.875       .  S
Al181       O191   1.917       .  S
Al181       O190   1.790       .  S
C182        O195   1.268       .  A
C182        C564   1.476       .  S
O183        C193   1.266       .  A
O183       Al185   1.935       .  S
O184        C197   1.269       .  A
O184       Al194   1.917       .  S
Al185       O198   1.908       .  S
Al185       O195   1.932       .  S
Al185       O190   1.778       .  S
O186        C193   1.257       .  A
O186       Al194   1.887       .  S
O187        C196   1.263       .  A
O187       Al194   1.931       .  S
O188       Al194   1.915       .  S
O189        C196   1.257       .  A
O190       Al194   1.784       .  S
O191        C192   1.261       .  A
C192        C819   1.491       .  S
C193        C522   1.487       .  S
C196        C550   1.474       .  S
C197        O198   1.268       .  A
C197        C536   1.484       .  S
O199        C214   1.268   1_545  A
O199       Al207   1.908       .  S
C200        O210   1.264       .  A
C200        O201   1.265       .  A
C200        C802   1.490       .  S
O201       Al203   1.912       .  S
O202        C204   1.258       .  A
O202       Al203   1.899       .  S
Al203       O211   1.933       .  S
Al203       O213   1.915       .  S
Al203       O212   1.780       .  S
C204        O217   1.268       .  A
C204        C497   1.495   1_545  S
O205        C215   1.268       .  A
O205       Al207   1.938       .  S
O206        C219   1.262       .  A
O206       Al216   1.916       .  S
Al207       O220   1.900       .  S
Al207       O217   1.936       .  S
Al207       O212   1.776       .  S
O208        C215   1.253       .  A
O208       Al216   1.861       .  S
O209        C218   1.255       .  A
O209       Al216   1.867       .  S
O210       Al216   1.933       .  S
O211        C218   1.264       .  A
O212       Al216   1.782       .  S
O213        C214   1.269   1_545  A
C214        C480   1.479       .  S
C215        C567   1.475       .  S
C218        C511   1.479       .  S
C219        O220   1.263       .  A
C219        C749   1.490       .  S
O221        C236   1.264       .  A
O221       Al229   1.885       .  S
C222        O232   1.264       .  A
C222        O223   1.272       .  A
C222        C886   1.502       .  S
O223       Al225   1.947       .  S
O224        C226   1.251       .  A
O224       Al225   1.871       .  S
Al225       O233   1.912       .  S
Al225       O235   1.933       .  S
Al225       O234   1.805       .  S
C226        O239   1.255       .  A
C226        C441   1.498       .  S
O227        C237   1.262       .  A
O227       Al229   1.917       .  S
O228        C241   1.268       .  A
O228       Al238   1.922       .  S
Al229       O242   1.917       .  S
Al229       O239   1.920       .  S
Al229       O234   1.802       .  S
O230        C237   1.247       .  A
O230       Al238   1.841       .  S
O231        C240   1.244       .  A
O231       Al238   1.853       .  S
O232       Al238   1.888       .  S
O233        C240   1.252       .  A
O234       Al238   1.798       .  S
O235        C236   1.270       .  A
C236        C455   1.491       .  S
C237        C469   1.461       .  S
C240        C553   1.485       .  S
C241        O242   1.263       .  A
C241        C959   1.498       .  S
O243        C258   1.260       .  A
O243       Al251   1.879       .  S
C244        O254   1.267       .  A
C244        O245   1.263       .  A
C244        C945   1.496       .  S
O245       Al247   1.930       .  S
O246        C248   1.253       .  A
O246       Al247   1.862       .  S
Al247       O255   1.876       .  S
Al247       O257   1.927       .  S
Al247       O256   1.785       .  S
C248        O261   1.266       .  A
C248        C466   1.474       .  S
O249        C259   1.264       .  A
O249       Al251   1.923       .  S
O250        C263   1.272       .  A
O250       Al260   1.925       .  S
Al251       O264   1.910       .  S
Al251       O261   1.924       .  S
Al251       O256   1.773       .  S
O252        C259   1.260       .  A
O252       Al260   1.895       .  S
O253        C262   1.265       .  A
O253       Al260   1.929       .  S
O254       Al260   1.921       .  S
O255        C262   1.257       .  A
O256       Al260   1.773       .  S
O257        C258   1.263       .  A
C258        C875   1.486       .  S
C259        C424   1.492   1_545  S
C262        C508   1.479       .  S
C263        O264   1.267       .  A
C263        C413   1.483   1_545  S
O265        C280   1.265       .  A
O265       Al273   1.908       .  S
C266        O276   1.263       .  A
C266        O267   1.262       .  A
C266        C494   1.497       .  S
O267       Al269   1.928       .  S
O268        C270   1.253       .  A
O268       Al269   1.868       .  S
Al269       O277   1.867       .  S
Al269       O279   1.926       .  S
Al269       O278   1.783       .  S
C270        O283   1.259       .  A
C270        C396   1.447       .  S
O271        C281   1.265       .  A
O271       Al273   1.924       .  S
O272        C285   1.270       .  A
O272       Al282   1.925       .  S
Al273       O286   1.902       .  S
Al273       O283   1.910       .  S
Al273       O278   1.779       .  S
O274        C281   1.264       .  A
O274       Al282   1.923       .  S
O275        C284   1.268       .  A
O275       Al282   1.950       .  S
O276       Al282   1.901       .  S
O277        C284   1.257       .  A
O278       Al282   1.782       .  S
O279        C280   1.265       .  A
C280        C539   1.496       .  S
C281        C665   1.481       .  S
C284        C382   1.489       .  S
C285        O286   1.261       .  A
C285        C735   1.495       .  S
O287        C302   1.255   1_455  A
O287       Al295   1.870       .  S
C288        O298   1.263       .  A
C288        O289   1.276       .  A
C288        C525   1.489       .  S
O289       Al291   1.958       .  S
O290        C292   1.255   1_455  A
O290       Al291   1.863       .  S
Al291       O299   1.908       .  S
Al291       O301   1.925   1_455  S
Al291       O300   1.774       .  S
C292        O305   1.262   1_655  A
C292        C721   1.491       .  S
O293        C303   1.256       .  A
O293       Al295   1.898       .  S
O294        C307   1.269       .  A
O294       Al304   1.904       .  S
Al295       O308   1.927       .  S
Al295       O305   1.943       .  S
Al295       O300   1.787       .  S
O296        C303   1.251       .  A
O296       Al304   1.869       .  S
O297        C306   1.251       .  A
O297       Al304   1.893       .  S
O298       Al304   1.882       .  S
O299        C306   1.256       .  A
O300       Al304   1.792       .  S
O301        C302   1.267       .  A
C302        C676   1.486       .  S
C303        C399   1.446       .  S
C306        C368   1.489       .  S
C307        O308   1.272       .  A
C307        C483   1.477       .  S
O309        C324   1.268       .  A
O309       Al317   1.923       .  S
C310        O320   1.260       .  A
C310        O311   1.263       .  A
C310        C427   1.490       .  S
O311       Al313   1.914       .  S
O312        C314   1.262       .  A
O312       Al313   1.898       .  S
Al313       O321   1.942       .  S
Al313       O323   1.916       .  S
Al313       O322   1.778       .  S
C314        O327   1.267       .  A
C314        C578   1.502       .  S
O315        C325   1.266       .  A
O315       Al317   1.922       .  S
O316        C329   1.259       .  A
O316       Al326   1.907       .  S
Al317       O330   1.907       .  S
Al317       O327   1.943       .  S
Al317       O322   1.776       .  S
O318        C325   1.259       .  A
O318       Al326   1.889       .  S
O319        C328   1.258       .  A
O319       Al326   1.880       .  S
O320       Al326   1.920       .  S
O321        C328   1.267       .  A
O322       Al326   1.787       .  S
O323        C324   1.269       .  A
C324        C634   1.489       .  S
C325        C357   1.476       .  S
C328        C385   1.489       .  S
C329        O330   1.268       .  A
C329        C452   1.487       .  S
O331        C346   1.267       .  A
O331       Al339   1.906       .  S
C332        O342   1.262       .  A
C332        O333   1.268       .  A
C332        C438   1.500       .  S
O333       Al335   1.936       .  S
O334        C336   1.253       .  A
O334       Al335   1.874       .  S
Al335       O343   1.883       .  S
Al335       O345   1.926       .  S
Al335       O344   1.777       .  S
C336        O349   1.264       .  A
C336        C354   1.476       .  S
O337        C347   1.268   1_455  A
O337       Al339   1.954       .  S
O338        C351   1.266       .  A
O338       Al348   1.905   1_655  S
Al339       O352   1.930   1_455  S
Al339       O349   1.925       .  S
Al339       O344   1.783       .  S
O340        C347   1.261       .  A
O340       Al348   1.884   1_655  S
O341        C350   1.260       .  A
O341       Al348   1.921       .  S
O342       Al348   1.900       .  S
O343        C350   1.257       .  A
O344       Al348   1.776       .  S
O345        C346   1.266       .  A
C346        C410   1.495       .  S
C347        C620   1.501       .  S
C350        C371   1.478       .  S
C351        O352   1.270       .  A
C351        C592   1.484       .  S
C353        C354   1.405       .  A
C353        C358   1.400       .  A
C353        H360   1.084       .  S
C354        C355   1.411       .  A
C355        C356   1.398       .  A
C355        N362   1.430       .  S
C356        C357   1.405       .  A
C356        H361   1.084       .  S
C357        C358   1.409       .  A
C358        N359   1.429       .  S
N359        O363   1.262       .  A
N359        O364   1.262       .  A
N362        O366   1.262       .  A
N362        O365   1.262       .  A
C367        C368   1.407       .  A
C367        C372   1.404       .  A
C367        H374   1.084   1_455  S
C368        C369   1.418       .  A
C369        C370   1.396       .  A
C369        N376   1.429       .  S
C370        C371   1.399       .  A
C370        H375   1.084       .  S
C371        C372   1.411       .  A
C372        N373   1.428   1_455  S
N373        O377   1.262       .  A
N373        O378   1.262       .  A
N376        O380   1.262       .  A
N376        O379   1.262       .  A
C381        C382   1.405       .  A
C381        C386   1.395   1_556  A
C381        H388   1.084       .  S
C382        C383   1.413       .  A
C383        C384   1.409   1_556  A
C383        N390   1.429       .  S
C384        C385   1.408       .  A
C384        H389   1.083       .  S
C385        C386   1.414       .  A
C386        N387   1.430       .  S
N387        O391   1.262       .  A
N387        O392   1.262       .  A
N390        O394   1.262       .  A
N390        O393   1.262       .  A
C395        C396   1.404       .  A
C395        C400   1.394       .  A
C395        H402   1.084       .  S
C396        C397   1.401       .  A
C397        C398   1.392       .  A
C397        N404   1.432       .  S
C398        C399   1.403       .  A
C398        H403   1.085       .  S
C399        C400   1.400       .  A
C400        N401   1.429       .  S
N401        O405   1.262       .  A
N401        O406   1.262       .  A
N404        O408   1.261       .  A
N404        O407   1.262       .  A
C409        C410   1.405       .  A
C409        C414   1.400       .  A
C409        H416   1.084       .  S
C410        C411   1.420       .  A
C411        C412   1.406       .  A
C411        N418   1.428       .  S
C412        C413   1.401       .  A
C412        H417   1.084       .  S
C413        C414   1.413       .  A
C414        N415   1.430   1_565  S
N415        O419   1.262       .  A
N415        O420   1.262       .  A
N418        O422   1.262       .  A
N418        O421   1.262       .  A
C423        C424   1.401       .  A
C423        C428   1.387       .  A
C423        H430   1.084       .  S
C424        C425   1.414       .  A
C425        C426   1.415       .  A
C425        N432   1.428   1_565  S
C426        C427   1.411       .  A
C426        H431   1.083       .  S
C427        C428   1.408       .  A
C428        N429   1.421       .  S
N429        O433   1.260       .  A
N429        O434   1.262       .  A
N432        O436   1.262       .  A
N432        O435   1.262       .  A
C437        C438   1.411       .  A
C437        C442   1.412       .  A
C437        H444   1.083       .  S
C438        C439   1.417       .  A
C439        C440   1.397       .  A
C439        N446   1.427       .  S
C440        C441   1.403       .  A
C440        H445   1.084       .  S
C441        C442   1.415       .  A
C442        N443   1.428       .  S
N443        O447   1.262       .  A
N443        O448   1.262       .  A
N446        O450   1.262   1_455  A
N446        O449   1.262       .  A
C451        C452   1.395       .  A
C451        C456   1.392       .  A
C451        H458   1.084       .  S
C452        C453   1.421       .  A
C453        C454   1.408       .  A
C453        N460   1.429       .  S
C454        C455   1.404       .  A
C454        H459   1.084       .  S
C455        C456   1.412       .  A
C456        N457   1.419       .  S
N457        O461   1.262       .  A
N457        O462   1.261       .  A
N460        O464   1.262       .  A
N460        O463   1.262       .  A
C465        C466   1.413       .  A
C465        C470   1.397       .  A
C465        H472   1.084       .  S
C466        C467   1.407       .  A
C467        C468   1.390       .  A
C467        N474   1.429       .  S
C468        C469   1.406       .  A
C468        H473   1.084       .  S
C469        C470   1.401       .  A
C470        N471   1.429       .  S
N471        O475   1.262       .  A
N471        O476   1.262       .  A
N474        O478   1.262       .  A
N474        O477   1.262       .  A
C479        C480   1.403       .  A
C479        C484   1.396       .  A
C479        H486   1.085       .  S
C480        C481   1.411       .  A
C481        C482   1.406       .  A
C481        N488   1.429       .  S
C482        C483   1.406       .  A
C482        H487   1.084       .  S
C483        C484   1.408       .  A
C484        N485   1.428       .  S
N485        O489   1.262       .  A
N485        O490   1.262       .  A
N488        O492   1.261       .  A
N488        O491   1.262       .  A
C493        C494   1.398       .  A
C493        C498   1.393       .  A
C493        H500   1.096       .  S
C494        C495   1.418       .  A
C495        C496   1.414       .  A
C495        N502   1.428       .  S
C496        C497   1.407       .  A
C496        H501   1.086       .  S
C497        C498   1.418       .  A
C498        N499   1.430       .  S
N499        O503   1.261   1_565  A
N499        O504   1.262       .  A
N502        O506   1.262       .  A
N502        O505   1.262       .  A
C507        C508   1.405       .  A
C507        C512   1.401       .  A
C507        H514   1.084       .  S
C508        C509   1.412       .  A
C509        C510   1.393       .  A
C509        N516   1.429       .  S
C510        C511   1.404       .  A
C510        H515   1.084       .  S
C511        C512   1.411       .  A
C512        N513   1.428       .  S
N513        O517   1.261   1_545  A
N513        O518   1.262       .  A
N516        O520   1.262       .  A
N516        O519   1.262       .  A
C521        C522   1.402       .  A
C521        C526   1.397       .  A
C521        H528   1.085       .  S
C522        C523   1.409       .  A
C523        C524   1.413       .  A
C523        N530   1.429       .  S
C524        C525   1.412       .  A
C524        H529   1.084       .  S
C525        C526   1.413       .  A
C526        N527   1.431       .  S
N527        O531   1.262       .  A
N527        O532   1.262       .  A
N530        O534   1.262       .  A
N530        O533   1.262       .  A
C535        C536   1.402       .  A
C535        C540   1.397       .  A
C535        H542   1.085       .  S
C536        C537   1.411       .  A
C537        C538   1.408       .  A
C537        N544   1.431       .  S
C538        C539   1.412       .  A
C538        H543   1.083       .  S
C539        C540   1.412       .  A
C540        N541   1.426       .  S
N541        O545   1.262       .  A
N541        O546   1.262       .  A
N544        O548   1.262       .  A
N544        O547   1.262       .  A
C549        C550   1.397       .  A
C549        C554   1.392   1_556  A
C549        H556   1.085       .  S
C550        C551   1.411       .  A
C551        C552   1.408   1_556  A
C551        N558   1.428       .  S
C552        C553   1.407       .  A
C552        H557   1.084       .  S
C553        C554   1.417       .  A
C554        N555   1.430       .  S
N555        O559   1.262       .  A
N555        O560   1.262       .  A
N558        O562   1.262       .  A
N558        O561   1.262       .  A
C563        C564   1.402       .  A
C563        C568   1.397       .  A
C563        H570   1.084       .  S
C564        C565   1.414       .  A
C565        C566   1.398       .  A
C565        N572   1.430       .  S
C566        C567   1.402       .  A
C566        H571   1.084       .  S
C567        C568   1.414       .  A
C568        N569   1.430       .  S
N569        O573   1.262       .  A
N569        O574   1.262       .  A
N572        O576   1.262       .  A
N572        O575   1.262       .  A
C577        C578   1.399       .  A
C577        C582   1.388       .  A
C577        H584   1.084       .  S
C578        C579   1.415       .  A
C579        C580   1.423       .  A
C579        N586   1.426       .  S
C580        C581   1.414       .  A
C580        H585   1.083       .  S
C581        C582   1.411       .  A
C582        N583   1.421       .  S
N583        O587   1.261       .  A
N583        O588   1.261       .  A
N586        O590   1.261       .  A
N586        O589   1.262       .  A
C591        C592   1.403       .  A
C591        C596   1.400       .  A
C591        H598   1.084       .  S
C592        C593   1.414       .  A
C593        C594   1.403       .  A
C593        N600   1.430       .  S
C594        C595   1.406       .  A
C594        H599   1.084       .  S
C595        C596   1.416       .  A
C596        N597   1.429       .  S
N597        O601   1.262       .  A
N597        O602   1.262       .  A
N600        O604   1.262       .  A
N600        O603   1.262       .  A
C605        C606   1.398       .  A
C605        C610   1.394       .  A
C605        H612   1.084       .  S
C606        C607   1.416       .  A
C607        C608   1.397       .  A
C607        N614   1.429       .  S
C608        C609   1.400       .  A
C608        H613   1.084       .  S
C609        C610   1.414       .  A
C610        N611   1.427       .  S
N611        O615   1.261       .  A
N611        O616   1.262       .  A
N614        O618   1.262       .  A
N614        O617   1.262       .  A
C619        C620   1.401       .  A
C619        C624   1.384       .  A
C619        H626   1.084       .  S
C620        C621   1.416       .  A
C621        C622   1.422       .  A
C621        N628   1.427   1_655  S
C622        C623   1.413       .  A
C622        H627   1.083       .  S
C623        C624   1.411       .  A
C624        N625   1.426       .  S
N625        O629   1.260       .  A
N625        O630   1.258       .  A
N628        O632   1.261   1_455  A
N628        O631   1.262       .  A
C633        C634   1.404       .  A
C633        C638   1.407       .  A
C633        H640   1.084       .  S
C634        C635   1.411       .  A
C635        C636   1.401       .  A
C635        N642   1.429       .  S
C636        C637   1.407       .  A
C636        H641   1.081       .  S
C637        C638   1.419       .  A
C638        N639   1.429       .  S
N639        O643   1.262       .  A
N639        O644   1.262       .  A
N642        O646   1.262       .  A
N642        O645   1.262       .  A
C647        C648   1.409       .  A
C647        C652   1.409       .  A
C647        H654   1.083       .  S
C648        C649   1.414       .  A
C649        C650   1.392       .  A
C649        N656   1.428       .  S
C650        C651   1.403       .  A
C650        H655   1.084       .  S
C651        C652   1.414       .  A
C652        N653   1.429   1_565  S
N653        O657   1.262       .  A
N653        O658   1.262       .  A
N656        O660   1.261       .  A
N656        O659   1.262       .  A
C661        C662   1.407       .  A
C661        C666   1.402       .  A
C661        H668   1.086       .  S
C662        C663   1.410       .  A
C663        C664   1.405       .  A
C663        N670   1.427       .  S
C664        C665   1.402       .  A
C664        H669   1.100       .  S
C665        C666   1.408       .  A
C666        N667   1.429       .  S
N667        O671   1.261       .  A
N667        O672   1.262       .  A
N670        O674   1.261       .  A
N670        O673   1.262       .  A
C675        C676   1.403       .  A
C675        C680   1.402       .  A
C675        H682   1.084       .  S
C676        C677   1.420       .  A
C677        C678   1.396       .  A
C677        N684   1.433       .  S
C678        C679   1.402       .  A
C678        H683   1.083       .  S
C679        C680   1.417       .  A
C680        N681   1.429       .  S
N681        O685   1.262       .  A
N681        O686   1.262       .  A
N684        O688   1.262       .  A
N684        O687   1.262       .  A
C689        C690   1.404       .  A
C689        C694   1.395   1_556  A
C689        H696   1.084       .  S
C690        C691   1.413       .  A
C691        C692   1.409   1_556  A
C691        N698   1.429       .  S
C692        C693   1.407       .  A
C692        H697   1.084       .  S
C693        C694   1.412       .  A
C694        N695   1.430       .  S
N695        O699   1.262       .  A
N695        O700   1.262       .  A
N698        O702   1.262       .  A
N698        O701   1.262       .  A
C703        C704   1.408       .  A
C703        C708   1.393       .  A
C703        H710   1.084       .  S
C704        C705   1.408       .  A
C705        C706   1.395       .  A
C705        N712   1.429       .  S
C706        C707   1.409       .  A
C706        H711   1.083       .  S
C707        C708   1.411       .  A
C708        N709   1.430       .  S
N709        O713   1.262       .  A
N709        O714   1.262       .  A
N712        O716   1.262       .  A
N712        O715   1.262       .  A
C717        C718   1.410       .  A
C717        C722   1.418       .  A
C717        H724   1.083       .  S
C718        C719   1.414       .  A
C719        C720   1.389       .  A
C719        N726   1.427       .  S
C720        C721   1.397       .  A
C720        H725   1.085       .  S
C721        C722   1.413       .  A
C722        N723   1.426   1_655  S
N723        O727   1.261       .  A
N723        O728   1.262       .  A
N726        O730   1.261       .  A
N726        O729   1.258       .  A
C731        C732   1.400       .  A
C731        C736   1.397       .  A
C731        H738   1.084       .  S
C732        C733   1.414       .  A
C733        C734   1.408       .  A
C733        N740   1.428       .  S
C734        C735   1.407       .  A
C734        H739   1.083       .  S
C735        C736   1.423       .  A
C736        N737   1.432       .  S
N737        O741   1.262       .  A
N737        O742   1.261       .  A
N740        O744   1.262       .  A
N740        O743   1.262       .  A
C745        C746   1.401       .  A
C745        C750   1.401       .  A
C745        H752   1.084       .  S
C746        C747   1.411       .  A
C747        C748   1.400       .  A
C747        N754   1.430       .  S
C748        C749   1.406       .  A
C748        H753   1.084       .  S
C749        C750   1.418       .  A
C750        N751   1.429       .  S
N751        O755   1.262       .  A
N751        O756   1.262       .  A
N754        O758   1.262   1_455  A
N754        O757   1.262   1_455  A
C759        C760   1.401   1_455  A
C759        C764   1.385       .  A
C759        H766   1.083       .  S
C760        C761   1.415       .  A
C761        C762   1.420   1_655  A
C761        N768   1.427       .  S
C762        C763   1.413       .  A
C762        H767   1.083       .  S
C763        C764   1.410       .  A
C764        N765   1.427       .  S
N765        O769   1.259       .  A
N765        O770   1.261       .  A
N768        O772   1.262       .  A
N768        O771   1.262       .  A
C773        C774   1.414       .  A
C773        C778   1.411       .  A
C773        H780   1.083       .  S
C774        C775   1.417       .  A
C775        C776   1.395       .  A
C775        N782   1.431       .  S
C776        C777   1.401       .  A
C776        H781   1.085       .  S
C777        C778   1.408       .  A
C778        N779   1.428       .  S
N779        O783   1.262       .  A
N779        O784   1.262       .  A
N782        O786   1.262       .  A
N782        O785   1.262       .  A
C787        C788   1.403       .  A
C787        C792   1.395       .  A
C787        H794   1.084       .  S
C788        C789   1.418       .  A
C789        C790   1.405       .  A
C789        N796   1.430       .  S
C790        C791   1.402       .  A
C790        H795   1.084       .  S
C791        C792   1.415       .  A
C792        N793   1.429       .  S
N793        O797   1.261   1_545  A
N793        O798   1.262       .  A
N796        O800   1.262       .  A
N796        O799   1.262       .  A
C801        C802   1.412       .  A
C801        C806   1.420       .  A
C801        H808   1.083       .  S
C802        C803   1.410       .  A
C803        C804   1.384       .  A
C803        N810   1.426       .  S
C804        C805   1.400       .  A
C804        H809   1.083       .  S
C805        C806   1.414       .  A
C806        N807   1.427       .  S
N807        O811   1.262       .  A
N807        O812   1.262       .  A
N810        O814   1.259       .  A
N810        O813   1.262       .  A
C815        C816   1.406       .  A
C815        C820   1.408       .  A
C815        H822   1.084       .  S
C816        C817   1.416       .  A
C817        C818   1.398       .  A
C817        N824   1.427       .  S
C818        C819   1.399       .  A
C818        H823   1.084       .  S
C819        C820   1.418       .  A
C820        N821   1.429       .  S
N821        O825   1.262       .  A
N821        O826   1.262       .  A
N824        O828   1.262       .  A
N824        O827   1.262       .  A
C829        C830   1.405       .  A
C829        C834   1.397       .  A
C829        H836   1.084       .  S
C830        C831   1.413       .  A
C831        C832   1.397       .  A
C831        N838   1.429       .  S
C832        C833   1.405       .  A
C832        H837   1.084       .  S
C833        C834   1.414       .  A
C834        N835   1.429       .  S
N835        O839   1.262       .  A
N835        O840   1.262       .  A
N838        O842   1.262       .  A
N838        O841   1.262       .  A
C843        C844   1.399       .  A
C843        C848   1.402       .  A
C843        H850   1.082       .  S
C844        C845   1.408       .  A
C845        C846   1.410       .  A
C845        N852   1.428       .  S
C846        C847   1.415       .  A
C846        H851   1.083       .  S
C847        C848   1.417       .  A
C848        N849   1.428       .  S
N849        O853   1.262       .  A
N849        O854   1.262       .  A
N852        O856   1.262   1_545  A
N852        O855   1.262       .  A
C857        C858   1.398       .  A
C857        C862   1.397       .  A
C857        H864   1.085       .  S
C858        C859   1.406       .  A
C859        C860   1.402       .  A
C859        N866   1.430       .  S
C860        C861   1.412       .  A
C860        H865   1.084       .  S
C861        C862   1.410       .  A
C862        N863   1.423       .  S
N863        O867   1.262       .  A
N863        O868   1.262       .  A
N866        O870   1.262       .  A
N866        O869   1.262       .  A
C871        C872   1.407       .  A
C871        C876   1.406       .  A
C871        H878   1.084       .  S
C872        C873   1.417       .  A
C873        C874   1.392       .  A
C873        N880   1.432       .  S
C874        C875   1.401       .  A
C874        H879   1.083       .  S
C875        C876   1.415       .  A
C876        N877   1.429       .  S
N877        O881   1.262       .  A
N877        O882   1.262       .  A
N880        O884   1.261       .  A
N880        O883   1.262       .  A
C885        C886   1.409       .  A
C885        C890   1.399       .  A
C885        H892   1.082       .  S
C886        C887   1.417       .  A
C887        C888   1.415   1_455  A
C887        N894   1.428       .  S
C888        C889   1.406       .  A
C888        H893   1.083       .  S
C889        C890   1.407   1_655  A
C890        N891   1.429       .  S
N891        O895   1.261       .  A
N891        O896   1.262       .  A
N894        O898   1.262       .  A
N894        O897   1.262   1_455  A
C899        C900   1.404       .  A
C899        C904   1.396       .  A
C899        H906   1.084       .  S
C900        C901   1.411       .  A
C901        C902   1.407       .  A
C901        N908   1.429       .  S
C902        C903   1.407       .  A
C902        H907   1.084       .  S
C903        C904   1.409       .  A
C904        N905   1.429       .  S
N905        O909   1.262       .  A
N905        O910   1.261       .  A
N908        O912   1.262   1_655  A
N908        O911   1.262   1_655  A
C913        C914   1.413       .  A
C913        C918   1.413       .  A
C913        H920   1.083       .  S
C914        C915   1.414       .  A
C915        C916   1.403       .  A
C915        N922   1.435       .  S
C916        C917   1.406       .  A
C916        H921   1.084       .  S
C917        C918   1.410       .  A
C918        N919   1.429       .  S
N919        O923   1.262       .  A
N919        O924   1.262       .  A
N922        O926   1.263       .  A
N922        O925   1.261       .  A
C927        C928   1.402       .  A
C927        C932   1.394       .  A
C927        H934   1.083       .  S
C928        C929   1.408       .  A
C929        C930   1.407       .  A
C929        N936   1.429       .  S
C930        C931   1.413       .  A
C930        H935   1.083       .  S
C931        C932   1.411       .  A
C932        N933   1.425       .  S
N933        O937   1.261       .  A
N933        O938   1.262       .  A
N936        O940   1.262       .  A
N936        O939   1.262       .  A
C941        C942   1.398       .  A
C941        C946   1.384       .  A
C941        H948   1.084       .  S
C942        C943   1.413       .  A
C943        C944   1.421       .  A
C943        N950   1.428       .  S
C944        C945   1.415       .  A
C944        H949   1.083       .  S
C945        C946   1.409       .  A
C946        N947   1.421       .  S
N947        O951   1.262       .  A
N947        O952   1.260       .  A
N950        O954   1.261       .  A
N950        O953   1.262       .  A
C955        C956   1.396       .  A
C955        C960   1.393       .  A
C955        H962   1.085       .  S
C956        C957   1.410       .  A
C957        C958   1.413       .  A
C957        N964   1.428       .  S
C958        C959   1.414       .  A
C958        H963   1.084       .  S
C959        C960   1.422       .  A
C960        N961   1.430       .  S
N961        O965   1.262       .  A
N961        O966   1.263       .  A
N964        O968   1.262       .  A
N964        O967   1.262       .  A
C969        C970   1.405       .  A
C969        C974   1.403   1_554  A
C969        H976   1.084       .  S
C970        C971   1.408       .  A
C971        C972   1.395   1_554  A
C971        N978   1.429       .  S
C972        C973   1.404       .  A
C972        H977   1.084       .  S
C973        C974   1.411       .  A
C974        N975   1.429       .  S
N975        O979   1.262       .  A
N975        O980   1.262       .  A
N978        O982   1.262       .  A
N978        O981   1.262       .  A
C983        C984   1.404       .  A
C983        C988   1.395       .  A
C983        H990   1.084       .  S
C984        C985   1.413       .  A
C985        C986   1.396       .  A
C985        N992   1.429       .  S
C986        C987   1.404       .  A
C986        H991   1.084       .  S
C987        C988   1.412       .  A
C988        N989   1.429       .  S
N989        O993   1.261       .  A
N989        O994   1.262       .  A
N992        O996   1.261       .  A
N992        O995   1.262       .  A
C997        C998   1.400       .  A
C997       C1002   1.388       .  A
C997       H1004   1.084       .  S
C998        C999   1.411       .  A
C999       C1000   1.414       .  A
C999       N1006   1.427       .  S
C1000      C1001   1.412       .  A
C1000      H1005   1.083       .  S
C1001      C1002   1.410       .  A
C1002      N1003   1.422       .  S
N1003      O1007   1.261       .  A
N1003      O1008   1.262       .  A
N1006      O1010   1.262       .  A
N1006      O1009   1.262   1_545  A
C1011      C1012   1.404       .  A
C1011      C1016   1.399       .  A
C1011      H1018   1.084       .  S
C1012      C1013   1.420       .  A
C1013      C1014   1.407       .  A
C1013      N1020   1.430       .  S
C1014      C1015   1.402       .  A
C1014      H1019   1.084       .  S
C1015      C1016   1.414       .  A
C1016      N1017   1.428       .  S
N1017      O1021   1.261       .  A
N1017      O1022   1.262       .  A
N1020      O1024   1.262       .  A
N1020      O1023   1.262       .  A
